rm: cannot remove '0.*': No such file or directory
rm: cannot remove '[1-9]*': No such file or directory
/*---------------------------------------------------------------------------*\
| =========                 |                                                 |
| \\      /  F ield         | OpenFOAM: The Open Source CFD Toolbox           |
|  \\    /   O peration     | Version:  2212                                  |
|   \\  /    A nd           | Website:  www.openfoam.com                      |
|    \\/     M anipulation  |                                                 |
\*---------------------------------------------------------------------------*/
Build  : _f8e05934-20230403 OPENFOAM=2212 patch=230110 version=2212
Arch   : "LSB;label=32;scalar=64"
Exec   : blockMesh
Date   : Jun 11 2023
Time   : 14:08:41
Host   : r1i2n30
PID    : 605651
I/O    : uncollated
Case   : /mnt/cases/cavity_nu0.001_U1
nProcs : 1
trapFpe: Floating point exception trapping enabled (FOAM_SIGFPE).
fileModificationChecking : Monitoring run-time modified files using timeStampMaster (fileModificationSkew 5, maxFileModificationPolls 20)
allowSystemOperations : Allowing user-supplied system call operations

// * * * * * * * * * * * * * * * * * * * * * * * * * * * * * * * * * * * * * //
Create time

Creating block mesh from "system/blockMeshDict"
Creating block edges
No non-planar block faces defined
Creating topology blocks

Creating topology patches - from boundary section

Creating block mesh topology - scaling/transform applied later

Check topology

	Basic statistics
		Number of internal faces : 0
		Number of boundary faces : 6
		Number of defined boundary faces : 6
		Number of undefined boundary faces : 0
	Checking patch -> block consistency

Creating block offsets
Creating merge list (topological search)...

Creating polyMesh from blockMesh
Creating patches
Creating cells
Creating points with scale (0.1 0.1 0.1)
    Block 0 cell size :
        i : 0.005 .. 0.005
        j : 0.005 .. 0.005
        k : 0.01 .. 0.01

No patch pairs to merge

Writing polyMesh with 0 cellZones
----------------
Mesh Information
----------------
  boundingBox: (0 0 0) (0.1 0.1 0.01)
  nPoints: 882
  nCells: 400
  nFaces: 1640
  nInternalFaces: 760
----------------
Patches
----------------
  patch 0 (start: 760 size: 20) name: movingWall
  patch 1 (start: 780 size: 60) name: fixedWalls
  patch 2 (start: 840 size: 800) name: frontAndBack

End


real	0m0.364s
user	0m0.031s
sys	0m0.282s
/*---------------------------------------------------------------------------*\
| =========                 |                                                 |
| \\      /  F ield         | OpenFOAM: The Open Source CFD Toolbox           |
|  \\    /   O peration     | Version:  2212                                  |
|   \\  /    A nd           | Website:  www.openfoam.com                      |
|    \\/     M anipulation  |                                                 |
\*---------------------------------------------------------------------------*/
Build  : _f8e05934-20230403 OPENFOAM=2212 patch=230110 version=2212
Arch   : "LSB;label=32;scalar=64"
Exec   : icoFoam
Date   : Jun 11 2023
Time   : 14:08:41
Host   : r1i2n30
PID    : 605679
I/O    : uncollated
Case   : /mnt/cases/cavity_nu0.001_U1
nProcs : 1
trapFpe: Floating point exception trapping enabled (FOAM_SIGFPE).
fileModificationChecking : Monitoring run-time modified files using timeStampMaster (fileModificationSkew 5, maxFileModificationPolls 20)
allowSystemOperations : Allowing user-supplied system call operations

// * * * * * * * * * * * * * * * * * * * * * * * * * * * * * * * * * * * * * //
Create time

Create mesh for time = 0


PISO: Operating solver in PISO mode

Reading transportProperties

Reading field p

Reading field U

Reading/calculating face flux field phi


Starting time loop

Time = 0.001

Courant Number mean: 0 max: 0
smoothSolver:  Solving for Ux, Initial residual = 1, Final residual = 7.23386e-08, No Iterations 3
smoothSolver:  Solving for Uy, Initial residual = 0, Final residual = 0, No Iterations 0
DICPCG:  Solving for p, Initial residual = 1, Final residual = 0.0288038, No Iterations 23
time step continuity errors : sum local = 2.14775e-06, global = 5.09543e-21, cumulative = 5.09543e-21
DICPCG:  Solving for p, Initial residual = 0.0733963, Final residual = 5.1925e-07, No Iterations 33
time step continuity errors : sum local = 8.48152e-11, global = -1.81566e-21, cumulative = 3.27977e-21
ExecutionTime = 0.02 s  ClockTime = 0 s

Time = 0.002

Courant Number mean: 0.00155849 max: 0.0128975
smoothSolver:  Solving for Ux, Initial residual = 0.308917, Final residual = 4.99185e-06, No Iterations 2
smoothSolver:  Solving for Uy, Initial residual = 0.32756, Final residual = 7.76038e-06, No Iterations 2
DICPCG:  Solving for p, Initial residual = 0.107056, Final residual = 0.00439941, No Iterations 10
time step continuity errors : sum local = 8.68389e-07, global = -2.82689e-21, cumulative = 4.52881e-22
DICPCG:  Solving for p, Initial residual = 0.00813007, Final residual = 5.33517e-07, No Iterations 28
time step continuity errors : sum local = 1.00188e-10, global = 1.07409e-20, cumulative = 1.11938e-20
ExecutionTime = 0.02 s  ClockTime = 0 s

Time = 0.003

Courant Number mean: 0.00296815 max: 0.0244821
smoothSolver:  Solving for Ux, Initial residual = 0.174364, Final residual = 2.89846e-06, No Iterations 2
smoothSolver:  Solving for Uy, Initial residual = 0.190884, Final residual = 4.52334e-06, No Iterations 2
DICPCG:  Solving for p, Initial residual = 0.0594182, Final residual = 0.00143311, No Iterations 11
time step continuity errors : sum local = 3.81709e-07, global = 2.2458e-20, cumulative = 3.36518e-20
DICPCG:  Solving for p, Initial residual = 0.00432464, Final residual = 4.94518e-07, No Iterations 28
time step continuity errors : sum local = 1.03145e-10, global = 1.89838e-20, cumulative = 5.26356e-20
ExecutionTime = 0.02 s  ClockTime = 0 s

Time = 0.004

Courant Number mean: 0.00424568 max: 0.0348989
smoothSolver:  Solving for Ux, Initial residual = 0.117544, Final residual = 2.00238e-06, No Iterations 2
smoothSolver:  Solving for Uy, Initial residual = 0.13198, Final residual = 3.13422e-06, No Iterations 2
DICPCG:  Solving for p, Initial residual = 0.039178, Final residual = 0.00108252, No Iterations 11
time step continuity errors : sum local = 3.24421e-07, global = -6.76634e-21, cumulative = 4.58692e-20
DICPCG:  Solving for p, Initial residual = 0.00344456, Final residual = 4.66859e-07, No Iterations 28
time step continuity errors : sum local = 1.04243e-10, global = -4.67316e-20, cumulative = -8.62336e-22
ExecutionTime = 0.02 s  ClockTime = 0 s

Time = 0.005

Courant Number mean: 0.00540602 max: 0.0442792
smoothSolver:  Solving for Ux, Initial residual = 0.0877392, Final residual = 1.5067e-06, No Iterations 2
smoothSolver:  Solving for Uy, Initial residual = 0.0992736, Final residual = 2.36509e-06, No Iterations 2
DICPCG:  Solving for p, Initial residual = 0.0290612, Final residual = 0.000954198, No Iterations 11
time step continuity errors : sum local = 3.01003e-07, global = -4.09703e-20, cumulative = -4.18326e-20
DICPCG:  Solving for p, Initial residual = 0.00301513, Final residual = 4.27092e-07, No Iterations 28
time step continuity errors : sum local = 1.0021e-10, global = 8.90046e-21, cumulative = -3.29321e-20
ExecutionTime = 0.04 s  ClockTime = 0 s

Time = 0.006

Courant Number mean: 0.00646226 max: 0.0527388
smoothSolver:  Solving for Ux, Initial residual = 0.069556, Final residual = 1.19374e-06, No Iterations 2
smoothSolver:  Solving for Uy, Initial residual = 0.0785612, Final residual = 1.87879e-06, No Iterations 2
DICPCG:  Solving for p, Initial residual = 0.0242146, Final residual = 0.000871727, No Iterations 11
time step continuity errors : sum local = 2.84001e-07, global = 6.14595e-20, cumulative = 2.85274e-20
DICPCG:  Solving for p, Initial residual = 0.00272199, Final residual = 9.83211e-07, No Iterations 27
time step continuity errors : sum local = 2.41815e-10, global = -1.39876e-20, cumulative = 1.45398e-20
ExecutionTime = 0.04 s  ClockTime = 0 s

Time = 0.007

Courant Number mean: 0.00744033 max: 0.0603799
smoothSolver:  Solving for Ux, Initial residual = 0.0573376, Final residual = 9.81731e-07, No Iterations 2
smoothSolver:  Solving for Uy, Initial residual = 0.0643341, Final residual = 1.545e-06, No Iterations 2
DICPCG:  Solving for p, Initial residual = 0.0233765, Final residual = 0.000793931, No Iterations 11
time step continuity errors : sum local = 2.66155e-07, global = 4.23186e-20, cumulative = 5.68583e-20
DICPCG:  Solving for p, Initial residual = 0.0024966, Final residual = 8.64688e-07, No Iterations 27
time step continuity errors : sum local = 2.19984e-10, global = 6.49668e-20, cumulative = 1.21825e-19
ExecutionTime = 0.04 s  ClockTime = 0 s

Time = 0.008

Courant Number mean: 0.00836004 max: 0.0672908
smoothSolver:  Solving for Ux, Initial residual = 0.0484855, Final residual = 8.2887e-07, No Iterations 2
smoothSolver:  Solving for Uy, Initial residual = 0.0540083, Final residual = 1.30267e-06, No Iterations 2
DICPCG:  Solving for p, Initial residual = 0.0228158, Final residual = 0.000741927, No Iterations 11
time step continuity errors : sum local = 2.52748e-07, global = 7.16421e-20, cumulative = 1.93467e-19
DICPCG:  Solving for p, Initial residual = 0.00230641, Final residual = 6.56223e-07, No Iterations 27
time step continuity errors : sum local = 1.71673e-10, global = -6.61993e-20, cumulative = 1.27268e-19
ExecutionTime = 0.04 s  ClockTime = 0 s

Time = 0.009

Courant Number mean: 0.00922298 max: 0.0735521
smoothSolver:  Solving for Ux, Initial residual = 0.0416883, Final residual = 7.1284e-07, No Iterations 2
smoothSolver:  Solving for Uy, Initial residual = 0.0462264, Final residual = 1.11994e-06, No Iterations 2
DICPCG:  Solving for p, Initial residual = 0.0222909, Final residual = 0.000682479, No Iterations 11
time step continuity errors : sum local = 2.37035e-07, global = -4.88202e-20, cumulative = 7.84477e-20
DICPCG:  Solving for p, Initial residual = 0.00214612, Final residual = 6.51435e-07, No Iterations 27
time step continuity errors : sum local = 1.75114e-10, global = -4.66282e-20, cumulative = 3.18196e-20
ExecutionTime = 0.05 s  ClockTime = 0 s

Time = 0.01

Courant Number mean: 0.0100341 max: 0.0792337
smoothSolver:  Solving for Ux, Initial residual = 0.0362919, Final residual = 6.22143e-07, No Iterations 2
smoothSolver:  Solving for Uy, Initial residual = 0.0401664, Final residual = 9.7742e-07, No Iterations 2
DICPCG:  Solving for p, Initial residual = 0.0205211, Final residual = 0.000610981, No Iterations 11
time step continuity errors : sum local = 2.17254e-07, global = 1.38884e-20, cumulative = 4.57079e-20
DICPCG:  Solving for p, Initial residual = 0.00196897, Final residual = 3.88343e-07, No Iterations 27
time step continuity errors : sum local = 1.0636e-10, global = 8.80906e-20, cumulative = 1.33799e-19
ExecutionTime = 0.06 s  ClockTime = 0 s

Time = 0.011

Courant Number mean: 0.0107959 max: 0.0843997
smoothSolver:  Solving for Ux, Initial residual = 0.0319371, Final residual = 5.50372e-07, No Iterations 2
smoothSolver:  Solving for Uy, Initial residual = 0.0353468, Final residual = 8.63779e-07, No Iterations 2
DICPCG:  Solving for p, Initial residual = 0.0198791, Final residual = 0.000581107, No Iterations 11
time step continuity errors : sum local = 2.09043e-07, global = 2.31445e-20, cumulative = 1.56943e-19
DICPCG:  Solving for p, Initial residual = 0.00184628, Final residual = 4.75106e-07, No Iterations 27
time step continuity errors : sum local = 1.33519e-10, global = -7.73662e-20, cumulative = 7.95768e-20
ExecutionTime = 0.06 s  ClockTime = 0 s

Time = 0.012

Courant Number mean: 0.0115148 max: 0.0891186
smoothSolver:  Solving for Ux, Initial residual = 0.0283473, Final residual = 4.92326e-07, No Iterations 2
smoothSolver:  Solving for Uy, Initial residual = 0.0314181, Final residual = 7.70801e-07, No Iterations 2
DICPCG:  Solving for p, Initial residual = 0.0186263, Final residual = 0.000524518, No Iterations 11
time step continuity errors : sum local = 1.91946e-07, global = -5.23274e-20, cumulative = 2.72494e-20
DICPCG:  Solving for p, Initial residual = 0.00172367, Final residual = 9.46285e-07, No Iterations 26
time step continuity errors : sum local = 2.69663e-10, global = -6.70678e-20, cumulative = -3.98184e-20
ExecutionTime = 0.06 s  ClockTime = 0 s

Time = 0.013

Courant Number mean: 0.0121952 max: 0.0934263
smoothSolver:  Solving for Ux, Initial residual = 0.0253465, Final residual = 4.44428e-07, No Iterations 2
smoothSolver:  Solving for Uy, Initial residual = 0.0281924, Final residual = 6.94269e-07, No Iterations 2
DICPCG:  Solving for p, Initial residual = 0.0167041, Final residual = 0.000482092, No Iterations 11
time step continuity errors : sum local = 1.79625e-07, global = -2.97702e-20, cumulative = -6.95886e-20
DICPCG:  Solving for p, Initial residual = 0.00160193, Final residual = 8.51631e-07, No Iterations 26
time step continuity errors : sum local = 2.47656e-10, global = -4.30961e-21, cumulative = -7.38982e-20
ExecutionTime = 0.07 s  ClockTime = 0 s

Time = 0.014

Courant Number mean: 0.012837 max: 0.0973637
smoothSolver:  Solving for Ux, Initial residual = 0.0228003, Final residual = 4.04223e-07, No Iterations 2
smoothSolver:  Solving for Uy, Initial residual = 0.0254856, Final residual = 6.29941e-07, No Iterations 2
DICPCG:  Solving for p, Initial residual = 0.0161527, Final residual = 0.000441228, No Iterations 11
time step continuity errors : sum local = 1.67289e-07, global = -7.88303e-21, cumulative = -8.17813e-20
DICPCG:  Solving for p, Initial residual = 0.00149058, Final residual = 7.80132e-07, No Iterations 26
time step continuity errors : sum local = 2.31027e-10, global = 2.66766e-20, cumulative = -5.51047e-20
ExecutionTime = 0.08 s  ClockTime = 0 s

Time = 0.015

Courant Number mean: 0.0134454 max: 0.100969
smoothSolver:  Solving for Ux, Initial residual = 0.0206224, Final residual = 3.70161e-07, No Iterations 2
smoothSolver:  Solving for Uy, Initial residual = 0.0231914, Final residual = 5.75254e-07, No Iterations 2
DICPCG:  Solving for p, Initial residual = 0.0147331, Final residual = 0.000420502, No Iterations 11
time step continuity errors : sum local = 1.60597e-07, global = -5.30636e-20, cumulative = -1.08168e-19
DICPCG:  Solving for p, Initial residual = 0.00140714, Final residual = 7.63854e-07, No Iterations 26
time step continuity errors : sum local = 2.31309e-10, global = -4.26908e-20, cumulative = -1.50859e-19
ExecutionTime = 0.08 s  ClockTime = 0 s

Time = 0.016

Courant Number mean: 0.0140234 max: 0.104276
smoothSolver:  Solving for Ux, Initial residual = 0.0187819, Final residual = 3.40999e-07, No Iterations 2
smoothSolver:  Solving for Uy, Initial residual = 0.0212394, Final residual = 5.28472e-07, No Iterations 2
DICPCG:  Solving for p, Initial residual = 0.0142723, Final residual = 0.000389769, No Iterations 11
time step continuity errors : sum local = 1.51418e-07, global = 1.5642e-20, cumulative = -1.35217e-19
DICPCG:  Solving for p, Initial residual = 0.00131427, Final residual = 7.05324e-07, No Iterations 26
time step continuity errors : sum local = 2.18275e-10, global = 4.11853e-20, cumulative = -9.40318e-20
ExecutionTime = 0.08 s  ClockTime = 0 s

Time = 0.017

Courant Number mean: 0.0145711 max: 0.107315
smoothSolver:  Solving for Ux, Initial residual = 0.0172376, Final residual = 3.15706e-07, No Iterations 2
smoothSolver:  Solving for Uy, Initial residual = 0.0195536, Final residual = 4.87971e-07, No Iterations 2
DICPCG:  Solving for p, Initial residual = 0.0132597, Final residual = 0.000356559, No Iterations 11
time step continuity errors : sum local = 1.41302e-07, global = -5.61242e-21, cumulative = -9.96442e-20
DICPCG:  Solving for p, Initial residual = 0.00122358, Final residual = 6.48619e-07, No Iterations 26
time step continuity errors : sum local = 2.04629e-10, global = 9.11553e-21, cumulative = -9.05287e-20
ExecutionTime = 0.09 s  ClockTime = 0 s

Time = 0.018

Courant Number mean: 0.0150921 max: 0.110112
smoothSolver:  Solving for Ux, Initial residual = 0.0159059, Final residual = 2.93552e-07, No Iterations 2
smoothSolver:  Solving for Uy, Initial residual = 0.0180829, Final residual = 4.52522e-07, No Iterations 2
DICPCG:  Solving for p, Initial residual = 0.0128664, Final residual = 0.000325999, No Iterations 11
time step continuity errors : sum local = 1.3173e-07, global = -5.97478e-20, cumulative = -1.50276e-19
DICPCG:  Solving for p, Initial residual = 0.00113198, Final residual = 5.96174e-07, No Iterations 26
time step continuity errors : sum local = 1.91941e-10, global = -1.36816e-20, cumulative = -1.63958e-19
ExecutionTime = 0.09 s  ClockTime = 0 s

Time = 0.019

Courant Number mean: 0.0155891 max: 0.112691
smoothSolver:  Solving for Ux, Initial residual = 0.0147474, Final residual = 2.7412e-07, No Iterations 2
smoothSolver:  Solving for Uy, Initial residual = 0.0167952, Final residual = 4.21398e-07, No Iterations 2
DICPCG:  Solving for p, Initial residual = 0.0130325, Final residual = 0.000287347, No Iterations 11
time step continuity errors : sum local = 1.19269e-07, global = 5.79443e-20, cumulative = -1.06014e-19
DICPCG:  Solving for p, Initial residual = 0.00102651, Final residual = 5.4882e-07, No Iterations 26
time step continuity errors : sum local = 1.80148e-10, global = -5.41803e-21, cumulative = -1.11432e-19
ExecutionTime = 0.09 s  ClockTime = 0 s

Time = 0.02

Courant Number mean: 0.0160622 max: 0.115073
smoothSolver:  Solving for Ux, Initial residual = 0.0137338, Final residual = 2.56885e-07, No Iterations 2
smoothSolver:  Solving for Uy, Initial residual = 0.0156605, Final residual = 3.93844e-07, No Iterations 2
DICPCG:  Solving for p, Initial residual = 0.0146063, Final residual = 0.00060738, No Iterations 10
time step continuity errors : sum local = 2.22638e-07, global = 1.31274e-20, cumulative = -9.83045e-20
DICPCG:  Solving for p, Initial residual = 0.0012002, Final residual = 4.29891e-07, No Iterations 26
time step continuity errors : sum local = 1.43934e-10, global = 1.63947e-20, cumulative = -8.19098e-20
ExecutionTime = 0.1 s  ClockTime = 0 s

Time = 0.021

Courant Number mean: 0.0165127 max: 0.117276
smoothSolver:  Solving for Ux, Initial residual = 0.0128276, Final residual = 2.41374e-07, No Iterations 2
smoothSolver:  Solving for Uy, Initial residual = 0.0146491, Final residual = 3.69309e-07, No Iterations 2
DICPCG:  Solving for p, Initial residual = 0.0119985, Final residual = 0.000307283, No Iterations 11
time step continuity errors : sum local = 1.25228e-07, global = 4.08627e-20, cumulative = -4.1047e-20
DICPCG:  Solving for p, Initial residual = 0.00115828, Final residual = 5.61075e-07, No Iterations 26
time step continuity errors : sum local = 1.89859e-10, global = -3.20946e-21, cumulative = -4.42565e-20
ExecutionTime = 0.11 s  ClockTime = 0 s

Time = 0.022

Courant Number mean: 0.0169462 max: 0.119319
smoothSolver:  Solving for Ux, Initial residual = 0.0120301, Final residual = 2.27564e-07, No Iterations 2
smoothSolver:  Solving for Uy, Initial residual = 0.0137688, Final residual = 3.47496e-07, No Iterations 2
DICPCG:  Solving for p, Initial residual = 0.0112281, Final residual = 0.000278108, No Iterations 11
time step continuity errors : sum local = 1.15964e-07, global = -5.56718e-21, cumulative = -4.98237e-20
DICPCG:  Solving for p, Initial residual = 0.00102601, Final residual = 5.0284e-07, No Iterations 26
time step continuity errors : sum local = 1.72945e-10, global = -3.47085e-20, cumulative = -8.45322e-20
ExecutionTime = 0.11 s  ClockTime = 0 s

Time = 0.023

Courant Number mean: 0.0173615 max: 0.121216
smoothSolver:  Solving for Ux, Initial residual = 0.0113218, Final residual = 2.15182e-07, No Iterations 2
smoothSolver:  Solving for Uy, Initial residual = 0.0129762, Final residual = 3.27872e-07, No Iterations 2
DICPCG:  Solving for p, Initial residual = 0.00968594, Final residual = 0.000248455, No Iterations 11
time step continuity errors : sum local = 1.06082e-07, global = 9.71855e-20, cumulative = 1.26533e-20
DICPCG:  Solving for p, Initial residual = 0.000912641, Final residual = 4.4488e-07, No Iterations 26
time step continuity errors : sum local = 1.55443e-10, global = 8.59606e-20, cumulative = 9.86139e-20
ExecutionTime = 0.11 s  ClockTime = 0 s

Time = 0.024

Courant Number mean: 0.0177591 max: 0.122992
smoothSolver:  Solving for Ux, Initial residual = 0.0106816, Final residual = 2.03956e-07, No Iterations 2
smoothSolver:  Solving for Uy, Initial residual = 0.0122568, Final residual = 3.10145e-07, No Iterations 2
DICPCG:  Solving for p, Initial residual = 0.00863581, Final residual = 0.000221079, No Iterations 11
time step continuity errors : sum local = 9.67854e-08, global = 7.07157e-20, cumulative = 1.6933e-19
DICPCG:  Solving for p, Initial residual = 0.000808809, Final residual = 9.84782e-07, No Iterations 25
time step continuity errors : sum local = 3.48895e-10, global = -1.9265e-20, cumulative = 1.50065e-19
ExecutionTime = 0.12 s  ClockTime = 0 s

Time = 0.025

Courant Number mean: 0.0181396 max: 0.124659
smoothSolver:  Solving for Ux, Initial residual = 0.0100997, Final residual = 1.93715e-07, No Iterations 2
smoothSolver:  Solving for Uy, Initial residual = 0.0116004, Final residual = 2.94027e-07, No Iterations 2
DICPCG:  Solving for p, Initial residual = 0.0086549, Final residual = 0.000212447, No Iterations 11
time step continuity errors : sum local = 9.36883e-08, global = 3.49153e-20, cumulative = 1.8498e-19
DICPCG:  Solving for p, Initial residual = 0.000784181, Final residual = 9.15006e-07, No Iterations 25
time step continuity errors : sum local = 3.28445e-10, global = 7.59104e-20, cumulative = 2.6089e-19
ExecutionTime = 0.12 s  ClockTime = 0 s

Time = 0.026

Courant Number mean: 0.0185042 max: 0.126217
smoothSolver:  Solving for Ux, Initial residual = 0.00957348, Final residual = 1.84328e-07, No Iterations 2
smoothSolver:  Solving for Uy, Initial residual = 0.0110095, Final residual = 2.79358e-07, No Iterations 2
DICPCG:  Solving for p, Initial residual = 0.00864182, Final residual = 0.000202944, No Iterations 11
time step continuity errors : sum local = 9.02994e-08, global = -1.72054e-20, cumulative = 2.43685e-19
DICPCG:  Solving for p, Initial residual = 0.000763998, Final residual = 8.46737e-07, No Iterations 25
time step continuity errors : sum local = 3.07883e-10, global = -1.74113e-19, cumulative = 6.95716e-20
ExecutionTime = 0.13 s  ClockTime = 0 s

Time = 0.027

Courant Number mean: 0.0188541 max: 0.127674
smoothSolver:  Solving for Ux, Initial residual = 0.00909264, Final residual = 1.75716e-07, No Iterations 2
smoothSolver:  Solving for Uy, Initial residual = 0.0104727, Final residual = 2.65942e-07, No Iterations 2
DICPCG:  Solving for p, Initial residual = 0.0066895, Final residual = 0.000183286, No Iterations 11
time step continuity errors : sum local = 8.32381e-08, global = -9.56221e-21, cumulative = 6.00094e-20
DICPCG:  Solving for p, Initial residual = 0.000667759, Final residual = 7.884e-07, No Iterations 25
time step continuity errors : sum local = 2.89688e-10, global = -6.15836e-20, cumulative = -1.57423e-21
ExecutionTime = 0.13 s  ClockTime = 0 s

Time = 0.028

Courant Number mean: 0.01919 max: 0.129039
smoothSolver:  Solving for Ux, Initial residual = 0.00865439, Final residual = 1.67823e-07, No Iterations 2
smoothSolver:  Solving for Uy, Initial residual = 0.00997852, Final residual = 2.53698e-07, No Iterations 2
DICPCG:  Solving for p, Initial residual = 0.00712018, Final residual = 0.000169717, No Iterations 11
time step continuity errors : sum local = 7.79915e-08, global = -1.04266e-19, cumulative = -1.0584e-19
DICPCG:  Solving for p, Initial residual = 0.000618052, Final residual = 7.24706e-07, No Iterations 25
time step continuity errors : sum local = 2.68188e-10, global = -4.31457e-20, cumulative = -1.48986e-19
ExecutionTime = 0.13 s  ClockTime = 0 s

Time = 0.029

Courant Number mean: 0.0195128 max: 0.130321
smoothSolver:  Solving for Ux, Initial residual = 0.00824999, Final residual = 1.60596e-07, No Iterations 2
smoothSolver:  Solving for Uy, Initial residual = 0.00952457, Final residual = 2.42457e-07, No Iterations 2
DICPCG:  Solving for p, Initial residual = 0.00647728, Final residual = 0.000171278, No Iterations 11
time step continuity errors : sum local = 7.82696e-08, global = -1.13324e-20, cumulative = -1.60318e-19
DICPCG:  Solving for p, Initial residual = 0.000631229, Final residual = 6.76995e-07, No Iterations 25
time step continuity errors : sum local = 2.52239e-10, global = 3.40302e-20, cumulative = -1.26288e-19
ExecutionTime = 0.14 s  ClockTime = 0 s

Time = 0.03

Courant Number mean: 0.0198234 max: 0.131525
smoothSolver:  Solving for Ux, Initial residual = 0.00787507, Final residual = 1.53857e-07, No Iterations 2
smoothSolver:  Solving for Uy, Initial residual = 0.00911052, Final residual = 2.32123e-07, No Iterations 2
DICPCG:  Solving for p, Initial residual = 0.0063129, Final residual = 0.000165652, No Iterations 11
time step continuity errors : sum local = 7.59189e-08, global = -1.78671e-20, cumulative = -1.44155e-19
DICPCG:  Solving for p, Initial residual = 0.000625082, Final residual = 6.36517e-07, No Iterations 25
time step continuity errors : sum local = 2.38944e-10, global = -9.89804e-20, cumulative = -2.43136e-19
ExecutionTime = 0.14 s  ClockTime = 0 s

Time = 0.031

Courant Number mean: 0.0201225 max: 0.13266
smoothSolver:  Solving for Ux, Initial residual = 0.00752682, Final residual = 1.47691e-07, No Iterations 2
smoothSolver:  Solving for Uy, Initial residual = 0.00872612, Final residual = 2.22518e-07, No Iterations 2
DICPCG:  Solving for p, Initial residual = 0.00590539, Final residual = 0.000159494, No Iterations 11
time step continuity errors : sum local = 7.3577e-08, global = 1.70662e-19, cumulative = -7.24739e-20
DICPCG:  Solving for p, Initial residual = 0.000596693, Final residual = 5.84279e-07, No Iterations 25
time step continuity errors : sum local = 2.21106e-10, global = -1.86943e-20, cumulative = -9.11682e-20
ExecutionTime = 0.15 s  ClockTime = 0 s

Time = 0.032

Courant Number mean: 0.0204109 max: 0.133731
smoothSolver:  Solving for Ux, Initial residual = 0.0072053, Final residual = 1.42121e-07, No Iterations 2
smoothSolver:  Solving for Uy, Initial residual = 0.00837364, Final residual = 2.13633e-07, No Iterations 2
DICPCG:  Solving for p, Initial residual = 0.00569851, Final residual = 0.000153467, No Iterations 11
time step continuity errors : sum local = 7.12266e-08, global = 4.91761e-20, cumulative = -4.19921e-20
DICPCG:  Solving for p, Initial residual = 0.000575956, Final residual = 5.4286e-07, No Iterations 25
time step continuity errors : sum local = 2.0702e-10, global = -5.3378e-20, cumulative = -9.537e-20
ExecutionTime = 0.16 s  ClockTime = 0 s

Time = 0.033

Courant Number mean: 0.0206906 max: 0.134743
smoothSolver:  Solving for Ux, Initial residual = 0.00690532, Final residual = 1.37038e-07, No Iterations 2
smoothSolver:  Solving for Uy, Initial residual = 0.00804843, Final residual = 2.0539e-07, No Iterations 2
DICPCG:  Solving for p, Initial residual = 0.00549209, Final residual = 0.000147578, No Iterations 11
time step continuity errors : sum local = 6.88911e-08, global = 1.08625e-19, cumulative = 1.32553e-20
DICPCG:  Solving for p, Initial residual = 0.000557126, Final residual = 5.09318e-07, No Iterations 25
time step continuity errors : sum local = 1.96011e-10, global = -3.06967e-20, cumulative = -1.74414e-20
ExecutionTime = 0.16 s  ClockTime = 0 s

Time = 0.034

Courant Number mean: 0.0209607 max: 0.1357
smoothSolver:  Solving for Ux, Initial residual = 0.00662604, Final residual = 1.32342e-07, No Iterations 2
smoothSolver:  Solving for Uy, Initial residual = 0.007746, Final residual = 1.97703e-07, No Iterations 2
DICPCG:  Solving for p, Initial residual = 0.00531945, Final residual = 0.000140894, No Iterations 11
time step continuity errors : sum local = 6.626e-08, global = 1.8626e-20, cumulative = 1.18468e-21
DICPCG:  Solving for p, Initial residual = 0.000541037, Final residual = 4.80006e-07, No Iterations 25
time step continuity errors : sum local = 1.86352e-10, global = 1.51035e-19, cumulative = 1.5222e-19
ExecutionTime = 0.16 s  ClockTime = 0 s

Time = 0.035

Courant Number mean: 0.0212216 max: 0.136606
smoothSolver:  Solving for Ux, Initial residual = 0.00637341, Final residual = 1.28087e-07, No Iterations 2
smoothSolver:  Solving for Uy, Initial residual = 0.00746557, Final residual = 1.90525e-07, No Iterations 2
DICPCG:  Solving for p, Initial residual = 0.00521641, Final residual = 0.000254995, No Iterations 10
time step continuity errors : sum local = 1.0985e-07, global = -2.74624e-21, cumulative = 1.49473e-19
DICPCG:  Solving for p, Initial residual = 0.000597917, Final residual = 4.30304e-07, No Iterations 25
time step continuity errors : sum local = 1.68348e-10, global = 1.70184e-19, cumulative = 3.19657e-19
ExecutionTime = 0.16 s  ClockTime = 0 s

Time = 0.036

Courant Number mean: 0.0214738 max: 0.137466
smoothSolver:  Solving for Ux, Initial residual = 0.00614095, Final residual = 1.24093e-07, No Iterations 2
smoothSolver:  Solving for Uy, Initial residual = 0.00720531, Final residual = 1.83839e-07, No Iterations 2
DICPCG:  Solving for p, Initial residual = 0.00524437, Final residual = 0.000243639, No Iterations 10
time step continuity errors : sum local = 1.05802e-07, global = 9.73922e-20, cumulative = 4.1705e-19
DICPCG:  Solving for p, Initial residual = 0.000574045, Final residual = 3.93066e-07, No Iterations 25
time step continuity errors : sum local = 1.54689e-10, global = -9.90962e-21, cumulative = 4.0714e-19
ExecutionTime = 0.17 s  ClockTime = 0 s

Time = 0.037

Courant Number mean: 0.0217244 max: 0.138283
smoothSolver:  Solving for Ux, Initial residual = 0.00592645, Final residual = 1.203e-07, No Iterations 2
smoothSolver:  Solving for Uy, Initial residual = 0.00695868, Final residual = 1.77488e-07, No Iterations 2
DICPCG:  Solving for p, Initial residual = 0.00530075, Final residual = 0.000232138, No Iterations 10
time step continuity errors : sum local = 1.01045e-07, global = 1.08419e-19, cumulative = 5.15559e-19
DICPCG:  Solving for p, Initial residual = 0.000558979, Final residual = 4.46104e-07, No Iterations 25
time step continuity errors : sum local = 1.77313e-10, global = -1.69489e-20, cumulative = 4.9861e-19
ExecutionTime = 0.17 s  ClockTime = 0 s

Time = 0.038

Courant Number mean: 0.021971 max: 0.139059
smoothSolver:  Solving for Ux, Initial residual = 0.0057241, Final residual = 1.16731e-07, No Iterations 2
smoothSolver:  Solving for Uy, Initial residual = 0.00673035, Final residual = 1.71641e-07, No Iterations 2
DICPCG:  Solving for p, Initial residual = 0.00491733, Final residual = 0.00022431, No Iterations 10
time step continuity errors : sum local = 9.87245e-08, global = 1.43607e-19, cumulative = 6.42217e-19
DICPCG:  Solving for p, Initial residual = 0.000534007, Final residual = 9.2561e-07, No Iterations 24
time step continuity errors : sum local = 3.69586e-10, global = -8.25857e-20, cumulative = 5.59631e-19
ExecutionTime = 0.18 s  ClockTime = 0 s

Time = 0.039

Courant Number mean: 0.0222157 max: 0.139799
smoothSolver:  Solving for Ux, Initial residual = 0.00553483, Final residual = 1.13284e-07, No Iterations 2
smoothSolver:  Solving for Uy, Initial residual = 0.00651136, Final residual = 1.66012e-07, No Iterations 2
DICPCG:  Solving for p, Initial residual = 0.00613634, Final residual = 0.000287514, No Iterations 9
time step continuity errors : sum local = 1.21753e-07, global = 3.44769e-20, cumulative = 5.94108e-19
DICPCG:  Solving for p, Initial residual = 0.000552403, Final residual = 9.84295e-07, No Iterations 24
time step continuity errors : sum local = 3.94574e-10, global = 7.14105e-20, cumulative = 6.65518e-19
ExecutionTime = 0.18 s  ClockTime = 0 s

Time = 0.04

Courant Number mean: 0.0224535 max: 0.140502
smoothSolver:  Solving for Ux, Initial residual = 0.00536235, Final residual = 1.10069e-07, No Iterations 2
smoothSolver:  Solving for Uy, Initial residual = 0.00631066, Final residual = 1.6094e-07, No Iterations 2
DICPCG:  Solving for p, Initial residual = 0.00451427, Final residual = 0.000207107, No Iterations 10
time step continuity errors : sum local = 9.15118e-08, global = 2.03933e-19, cumulative = 8.69451e-19
DICPCG:  Solving for p, Initial residual = 0.000510334, Final residual = 8.62442e-07, No Iterations 24
time step continuity errors : sum local = 3.48037e-10, global = 9.72806e-20, cumulative = 9.66732e-19
ExecutionTime = 0.19 s  ClockTime = 0 s

Time = 0.041

Courant Number mean: 0.0226855 max: 0.141173
smoothSolver:  Solving for Ux, Initial residual = 0.00519193, Final residual = 1.06954e-07, No Iterations 2
smoothSolver:  Solving for Uy, Initial residual = 0.00611987, Final residual = 1.55992e-07, No Iterations 2
DICPCG:  Solving for p, Initial residual = 0.00502835, Final residual = 0.000209316, No Iterations 10
time step continuity errors : sum local = 9.31573e-08, global = -1.78588e-20, cumulative = 9.48873e-19
DICPCG:  Solving for p, Initial residual = 0.000501427, Final residual = 8.3783e-07, No Iterations 24
time step continuity errors : sum local = 3.3939e-10, global = 8.52161e-20, cumulative = 1.03409e-18
ExecutionTime = 0.19 s  ClockTime = 0 s

Time = 0.042

Courant Number mean: 0.0229162 max: 0.141829
smoothSolver:  Solving for Ux, Initial residual = 0.00503297, Final residual = 1.03927e-07, No Iterations 2
smoothSolver:  Solving for Uy, Initial residual = 0.0059334, Final residual = 1.51129e-07, No Iterations 2
DICPCG:  Solving for p, Initial residual = 0.00496822, Final residual = 0.00019093, No Iterations 10
time step continuity errors : sum local = 8.45731e-08, global = -1.71731e-19, cumulative = 8.62358e-19
DICPCG:  Solving for p, Initial residual = 0.000471252, Final residual = 8.91293e-07, No Iterations 24
time step continuity errors : sum local = 3.65086e-10, global = -6.21295e-20, cumulative = 8.00229e-19
ExecutionTime = 0.19 s  ClockTime = 0 s

Time = 0.043

Courant Number mean: 0.0231412 max: 0.142461
smoothSolver:  Solving for Ux, Initial residual = 0.0048836, Final residual = 1.01131e-07, No Iterations 2
smoothSolver:  Solving for Uy, Initial residual = 0.00577714, Final residual = 1.46992e-07, No Iterations 2
DICPCG:  Solving for p, Initial residual = 0.00415846, Final residual = 0.000186761, No Iterations 10
time step continuity errors : sum local = 8.39154e-08, global = -2.19037e-20, cumulative = 7.78325e-19
DICPCG:  Solving for p, Initial residual = 0.000454768, Final residual = 7.66651e-07, No Iterations 24
time step continuity errors : sum local = 3.14006e-10, global = 3.17555e-20, cumulative = 8.1008e-19
ExecutionTime = 0.2 s  ClockTime = 0 s

Time = 0.044

Courant Number mean: 0.0233605 max: 0.143064
smoothSolver:  Solving for Ux, Initial residual = 0.00474192, Final residual = 9.84326e-08, No Iterations 2
smoothSolver:  Solving for Uy, Initial residual = 0.00561827, Final residual = 1.42811e-07, No Iterations 2
DICPCG:  Solving for p, Initial residual = 0.00407285, Final residual = 0.000182239, No Iterations 10
time step continuity errors : sum local = 8.22113e-08, global = 6.36267e-20, cumulative = 8.73707e-19
DICPCG:  Solving for p, Initial residual = 0.000446871, Final residual = 7.61796e-07, No Iterations 24
time step continuity errors : sum local = 3.13404e-10, global = -3.4998e-20, cumulative = 8.38709e-19
ExecutionTime = 0.21 s  ClockTime = 0 s

Time = 0.045

Courant Number mean: 0.0235745 max: 0.143643
smoothSolver:  Solving for Ux, Initial residual = 0.00460551, Final residual = 9.58389e-08, No Iterations 2
smoothSolver:  Solving for Uy, Initial residual = 0.00546673, Final residual = 1.3885e-07, No Iterations 2
DICPCG:  Solving for p, Initial residual = 0.0044119, Final residual = 0.000182283, No Iterations 10
time step continuity errors : sum local = 8.22065e-08, global = 3.38896e-20, cumulative = 8.72599e-19
DICPCG:  Solving for p, Initial residual = 0.000439236, Final residual = 8.04484e-07, No Iterations 24
time step continuity errors : sum local = 3.32598e-10, global = -4.1996e-20, cumulative = 8.30603e-19
ExecutionTime = 0.21 s  ClockTime = 0 s

Time = 0.046

Courant Number mean: 0.0237845 max: 0.1442
smoothSolver:  Solving for Ux, Initial residual = 0.00447653, Final residual = 9.33373e-08, No Iterations 2
smoothSolver:  Solving for Uy, Initial residual = 0.00531877, Final residual = 1.34968e-07, No Iterations 2
DICPCG:  Solving for p, Initial residual = 0.00408538, Final residual = 0.000171621, No Iterations 10
time step continuity errors : sum local = 7.81034e-08, global = 2.31197e-20, cumulative = 8.53723e-19
DICPCG:  Solving for p, Initial residual = 0.000424959, Final residual = 7.63741e-07, No Iterations 24
time step continuity errors : sum local = 3.16863e-10, global = 4.0201e-21, cumulative = 8.57743e-19
ExecutionTime = 0.21 s  ClockTime = 0 s

Time = 0.047

Courant Number mean: 0.0239934 max: 0.144735
smoothSolver:  Solving for Ux, Initial residual = 0.00435353, Final residual = 9.09457e-08, No Iterations 2
smoothSolver:  Solving for Uy, Initial residual = 0.00517994, Final residual = 1.31334e-07, No Iterations 2
DICPCG:  Solving for p, Initial residual = 0.00449374, Final residual = 0.000204632, No Iterations 9
time step continuity errors : sum local = 8.98538e-08, global = -1.05432e-19, cumulative = 7.5231e-19
DICPCG:  Solving for p, Initial residual = 0.000455601, Final residual = 7.16104e-07, No Iterations 25
time step continuity errors : sum local = 2.99818e-10, global = -1.06921e-19, cumulative = 6.45389e-19
ExecutionTime = 0.22 s  ClockTime = 0 s

Time = 0.048

Courant Number mean: 0.0241976 max: 0.145249
smoothSolver:  Solving for Ux, Initial residual = 0.00423599, Final residual = 8.87166e-08, No Iterations 2
smoothSolver:  Solving for Uy, Initial residual = 0.00505538, Final residual = 1.28179e-07, No Iterations 2
DICPCG:  Solving for p, Initial residual = 0.0036828, Final residual = 0.000154806, No Iterations 10
time step continuity errors : sum local = 7.0998e-08, global = -6.84899e-21, cumulative = 6.3854e-19
DICPCG:  Solving for p, Initial residual = 0.000404559, Final residual = 7.84631e-07, No Iterations 24
time step continuity errors : sum local = 3.28735e-10, global = -1.73691e-19, cumulative = 4.64848e-19
ExecutionTime = 0.22 s  ClockTime = 0 s

Time = 0.049

Courant Number mean: 0.0243971 max: 0.145745
smoothSolver:  Solving for Ux, Initial residual = 0.00412266, Final residual = 8.65493e-08, No Iterations 2
smoothSolver:  Solving for Uy, Initial residual = 0.00493136, Final residual = 1.24912e-07, No Iterations 2
DICPCG:  Solving for p, Initial residual = 0.00341736, Final residual = 0.000151628, No Iterations 10
time step continuity errors : sum local = 6.98795e-08, global = -6.78288e-20, cumulative = 3.9702e-19
DICPCG:  Solving for p, Initial residual = 0.000392369, Final residual = 7.34343e-07, No Iterations 24
time step continuity errors : sum local = 3.08404e-10, global = 5.09791e-20, cumulative = 4.47999e-19
ExecutionTime = 0.22 s  ClockTime = 0 s

Time = 0.05

Courant Number mean: 0.024592 max: 0.146222
smoothSolver:  Solving for Ux, Initial residual = 0.00401466, Final residual = 8.44664e-08, No Iterations 2
smoothSolver:  Solving for Uy, Initial residual = 0.00481302, Final residual = 1.21802e-07, No Iterations 2
DICPCG:  Solving for p, Initial residual = 0.0033438, Final residual = 0.000147497, No Iterations 10
time step continuity errors : sum local = 6.81983e-08, global = -8.53485e-20, cumulative = 3.6265e-19
DICPCG:  Solving for p, Initial residual = 0.000383531, Final residual = 7.1253e-07, No Iterations 24
time step continuity errors : sum local = 3.00354e-10, global = -6.75972e-20, cumulative = 2.95053e-19
ExecutionTime = 0.23 s  ClockTime = 0 s

Time = 0.051

Courant Number mean: 0.0247827 max: 0.146682
smoothSolver:  Solving for Ux, Initial residual = 0.00391207, Final residual = 8.24643e-08, No Iterations 2
smoothSolver:  Solving for Uy, Initial residual = 0.00469981, Final residual = 1.1883e-07, No Iterations 2
DICPCG:  Solving for p, Initial residual = 0.00330156, Final residual = 0.000142433, No Iterations 10
time step continuity errors : sum local = 6.61029e-08, global = -1.49893e-19, cumulative = 1.4516e-19
DICPCG:  Solving for p, Initial residual = 0.000375351, Final residual = 7.01912e-07, No Iterations 24
time step continuity errors : sum local = 2.97082e-10, global = 5.25673e-20, cumulative = 1.97727e-19
ExecutionTime = 0.24 s  ClockTime = 0 s

Time = 0.052

Courant Number mean: 0.0249696 max: 0.147127
smoothSolver:  Solving for Ux, Initial residual = 0.00381283, Final residual = 8.05389e-08, No Iterations 2
smoothSolver:  Solving for Uy, Initial residual = 0.0045916, Final residual = 1.15984e-07, No Iterations 2
DICPCG:  Solving for p, Initial residual = 0.00330671, Final residual = 0.000138029, No Iterations 10
time step continuity errors : sum local = 6.44491e-08, global = -3.092e-20, cumulative = 1.66807e-19
DICPCG:  Solving for p, Initial residual = 0.000367924, Final residual = 6.9987e-07, No Iterations 24
time step continuity errors : sum local = 2.97498e-10, global = 5.35186e-20, cumulative = 2.20326e-19
ExecutionTime = 0.24 s  ClockTime = 0 s

Time = 0.053

Courant Number mean: 0.0251523 max: 0.147556
smoothSolver:  Solving for Ux, Initial residual = 0.00371695, Final residual = 7.86727e-08, No Iterations 2
smoothSolver:  Solving for Uy, Initial residual = 0.00448812, Final residual = 1.1325e-07, No Iterations 2
DICPCG:  Solving for p, Initial residual = 0.00360484, Final residual = 0.000132835, No Iterations 10
time step continuity errors : sum local = 6.23849e-08, global = 2.04314e-21, cumulative = 2.22369e-19
DICPCG:  Solving for p, Initial residual = 0.000358956, Final residual = 6.56317e-07, No Iterations 24
time step continuity errors : sum local = 2.80367e-10, global = -1.299e-19, cumulative = 9.24683e-20
ExecutionTime = 0.24 s  ClockTime = 0 s

Time = 0.054

Courant Number mean: 0.0253314 max: 0.147971
smoothSolver:  Solving for Ux, Initial residual = 0.00362475, Final residual = 7.68684e-08, No Iterations 2
smoothSolver:  Solving for Uy, Initial residual = 0.00438748, Final residual = 1.10595e-07, No Iterations 2
DICPCG:  Solving for p, Initial residual = 0.00384692, Final residual = 0.000190965, No Iterations 9
time step continuity errors : sum local = 8.61385e-08, global = -1.08113e-19, cumulative = -1.56442e-20
DICPCG:  Solving for p, Initial residual = 0.00039274, Final residual = 7.48631e-07, No Iterations 24
time step continuity errors : sum local = 3.2101e-10, global = -2.15232e-20, cumulative = -3.71675e-20
ExecutionTime = 0.25 s  ClockTime = 0 s

Time = 0.055

Courant Number mean: 0.0255094 max: 0.148371
smoothSolver:  Solving for Ux, Initial residual = 0.00353564, Final residual = 7.51213e-08, No Iterations 2
smoothSolver:  Solving for Uy, Initial residual = 0.00428834, Final residual = 1.07996e-07, No Iterations 2
DICPCG:  Solving for p, Initial residual = 0.0048327, Final residual = 0.000240908, No Iterations 8
time step continuity errors : sum local = 1.05759e-07, global = -2.05099e-20, cumulative = -5.76774e-20
DICPCG:  Solving for p, Initial residual = 0.000468074, Final residual = 5.28208e-07, No Iterations 26
time step continuity errors : sum local = 2.27361e-10, global = 2.87445e-21, cumulative = -5.4803e-20
ExecutionTime = 0.25 s  ClockTime = 0 s

Time = 0.056

Courant Number mean: 0.0256852 max: 0.14876
smoothSolver:  Solving for Ux, Initial residual = 0.00344934, Final residual = 7.35246e-08, No Iterations 2
smoothSolver:  Solving for Uy, Initial residual = 0.00421016, Final residual = 1.05851e-07, No Iterations 2
DICPCG:  Solving for p, Initial residual = 0.0030825, Final residual = 0.000121495, No Iterations 10
time step continuity errors : sum local = 5.73673e-08, global = -1.20293e-19, cumulative = -1.75096e-19
DICPCG:  Solving for p, Initial residual = 0.000343046, Final residual = 7.92163e-07, No Iterations 24
time step continuity errors : sum local = 3.41222e-10, global = -4.73685e-20, cumulative = -2.22464e-19
ExecutionTime = 0.26 s  ClockTime = 0 s

Time = 0.057

Courant Number mean: 0.025858 max: 0.149136
smoothSolver:  Solving for Ux, Initial residual = 0.00336667, Final residual = 7.19487e-08, No Iterations 2
smoothSolver:  Solving for Uy, Initial residual = 0.00412315, Final residual = 1.0355e-07, No Iterations 2
DICPCG:  Solving for p, Initial residual = 0.00286045, Final residual = 0.000118474, No Iterations 10
time step continuity errors : sum local = 5.62199e-08, global = -2.89761e-20, cumulative = -2.5144e-19
DICPCG:  Solving for p, Initial residual = 0.000335431, Final residual = 7.16872e-07, No Iterations 24
time step continuity errors : sum local = 3.09437e-10, global = -1.63037e-20, cumulative = -2.67744e-19
ExecutionTime = 0.27 s  ClockTime = 0 s

Time = 0.058

Courant Number mean: 0.0260273 max: 0.1495
smoothSolver:  Solving for Ux, Initial residual = 0.00328707, Final residual = 7.04219e-08, No Iterations 2
smoothSolver:  Solving for Uy, Initial residual = 0.00403894, Final residual = 1.01346e-07, No Iterations 2
DICPCG:  Solving for p, Initial residual = 0.00280715, Final residual = 0.0001157, No Iterations 10
time step continuity errors : sum local = 5.50195e-08, global = 2.24166e-20, cumulative = -2.45327e-19
DICPCG:  Solving for p, Initial residual = 0.000329708, Final residual = 7.01487e-07, No Iterations 24
time step continuity errors : sum local = 3.03757e-10, global = 2.25241e-20, cumulative = -2.22803e-19
ExecutionTime = 0.27 s  ClockTime = 0 s

Time = 0.059

Courant Number mean: 0.0261931 max: 0.149854
smoothSolver:  Solving for Ux, Initial residual = 0.00321018, Final residual = 6.89527e-08, No Iterations 2
smoothSolver:  Solving for Uy, Initial residual = 0.00395798, Final residual = 9.9223e-08, No Iterations 2
DICPCG:  Solving for p, Initial residual = 0.00275649, Final residual = 0.000112314, No Iterations 10
time step continuity errors : sum local = 5.35706e-08, global = -2.45755e-20, cumulative = -2.47379e-19
DICPCG:  Solving for p, Initial residual = 0.000323548, Final residual = 7.09315e-07, No Iterations 24
time step continuity errors : sum local = 3.08108e-10, global = 5.93502e-20, cumulative = -1.88029e-19
ExecutionTime = 0.27 s  ClockTime = 0 s

Time = 0.06

Courant Number mean: 0.0263557 max: 0.150197
smoothSolver:  Solving for Ux, Initial residual = 0.00313635, Final residual = 6.75361e-08, No Iterations 2
smoothSolver:  Solving for Uy, Initial residual = 0.00387986, Final residual = 9.71771e-08, No Iterations 2
DICPCG:  Solving for p, Initial residual = 0.00271284, Final residual = 0.000109197, No Iterations 10
time step continuity errors : sum local = 5.22372e-08, global = 1.57553e-19, cumulative = -3.04756e-20
DICPCG:  Solving for p, Initial residual = 0.000317359, Final residual = 7.1474e-07, No Iterations 24
time step continuity errors : sum local = 3.11392e-10, global = -1.57239e-19, cumulative = -1.87714e-19
ExecutionTime = 0.27 s  ClockTime = 0 s

Time = 0.061

Courant Number mean: 0.026515 max: 0.150529
smoothSolver:  Solving for Ux, Initial residual = 0.00306574, Final residual = 6.6169e-08, No Iterations 2
smoothSolver:  Solving for Uy, Initial residual = 0.0038047, Final residual = 9.5207e-08, No Iterations 2
DICPCG:  Solving for p, Initial residual = 0.00273908, Final residual = 0.000106596, No Iterations 10
time step continuity errors : sum local = 5.10987e-08, global = -9.6747e-20, cumulative = -2.84461e-19
DICPCG:  Solving for p, Initial residual = 0.000311291, Final residual = 7.06305e-07, No Iterations 24
time step continuity errors : sum local = 3.08558e-10, global = 4.31127e-20, cumulative = -2.41349e-19
ExecutionTime = 0.28 s  ClockTime = 0 s

Time = 0.062

Courant Number mean: 0.0266713 max: 0.150852
smoothSolver:  Solving for Ux, Initial residual = 0.00299998, Final residual = 6.48613e-08, No Iterations 2
smoothSolver:  Solving for Uy, Initial residual = 0.0037325, Final residual = 9.33114e-08, No Iterations 2
DICPCG:  Solving for p, Initial residual = 0.00267021, Final residual = 0.000132623, No Iterations 9
time step continuity errors : sum local = 6.18438e-08, global = 2.09529e-19, cumulative = -3.18198e-20
DICPCG:  Solving for p, Initial residual = 0.000333341, Final residual = 7.71929e-07, No Iterations 24
time step continuity errors : sum local = 3.3783e-10, global = -1.10867e-19, cumulative = -1.42687e-19
ExecutionTime = 0.29 s  ClockTime = 0 s

Time = 0.063

Courant Number mean: 0.0268249 max: 0.151166
smoothSolver:  Solving for Ux, Initial residual = 0.00293812, Final residual = 6.35938e-08, No Iterations 2
smoothSolver:  Solving for Uy, Initial residual = 0.00366267, Final residual = 9.14847e-08, No Iterations 2
DICPCG:  Solving for p, Initial residual = 0.00278117, Final residual = 0.000133031, No Iterations 9
time step continuity errors : sum local = 6.18312e-08, global = 1.5879e-19, cumulative = 1.61029e-20
DICPCG:  Solving for p, Initial residual = 0.000330647, Final residual = 7.91285e-07, No Iterations 24
time step continuity errors : sum local = 3.47544e-10, global = 1.90169e-19, cumulative = 2.06272e-19
ExecutionTime = 0.29 s  ClockTime = 0 s

Time = 0.064

Courant Number mean: 0.0269756 max: 0.151472
smoothSolver:  Solving for Ux, Initial residual = 0.00288003, Final residual = 6.2359e-08, No Iterations 2
smoothSolver:  Solving for Uy, Initial residual = 0.00359345, Final residual = 8.96934e-08, No Iterations 2
DICPCG:  Solving for p, Initial residual = 0.00253696, Final residual = 0.000123747, No Iterations 9
time step continuity errors : sum local = 5.79668e-08, global = -6.00368e-20, cumulative = 1.46235e-19
DICPCG:  Solving for p, Initial residual = 0.000320888, Final residual = 7.48851e-07, No Iterations 24
time step continuity errors : sum local = 3.29478e-10, global = -1.19838e-19, cumulative = 2.63972e-20
ExecutionTime = 0.29 s  ClockTime = 0 s

Time = 0.065

Courant Number mean: 0.0271235 max: 0.151768
smoothSolver:  Solving for Ux, Initial residual = 0.00282376, Final residual = 6.11589e-08, No Iterations 2
smoothSolver:  Solving for Uy, Initial residual = 0.00352798, Final residual = 8.79848e-08, No Iterations 2
DICPCG:  Solving for p, Initial residual = 0.00250817, Final residual = 0.000120834, No Iterations 9
time step continuity errors : sum local = 5.67565e-08, global = -1.11901e-19, cumulative = -8.55038e-20
DICPCG:  Solving for p, Initial residual = 0.000316063, Final residual = 7.4452e-07, No Iterations 24
time step continuity errors : sum local = 3.28344e-10, global = 1.28019e-19, cumulative = 4.25148e-20
ExecutionTime = 0.3 s  ClockTime = 0 s

Time = 0.066

Courant Number mean: 0.0272688 max: 0.152057
smoothSolver:  Solving for Ux, Initial residual = 0.00276968, Final residual = 6.0003e-08, No Iterations 2
smoothSolver:  Solving for Uy, Initial residual = 0.00346475, Final residual = 8.63361e-08, No Iterations 2
DICPCG:  Solving for p, Initial residual = 0.00247741, Final residual = 0.000118048, No Iterations 9
time step continuity errors : sum local = 5.55993e-08, global = -2.57146e-19, cumulative = -2.14631e-19
DICPCG:  Solving for p, Initial residual = 0.000311511, Final residual = 7.41556e-07, No Iterations 24
time step continuity errors : sum local = 3.27813e-10, global = -1.62661e-19, cumulative = -3.77292e-19
ExecutionTime = 0.3 s  ClockTime = 1 s

Time = 0.067

Courant Number mean: 0.0274117 max: 0.152338
smoothSolver:  Solving for Ux, Initial residual = 0.00271701, Final residual = 5.88855e-08, No Iterations 2
smoothSolver:  Solving for Uy, Initial residual = 0.0034036, Final residual = 8.47428e-08, No Iterations 2
DICPCG:  Solving for p, Initial residual = 0.00244288, Final residual = 0.000114394, No Iterations 9
time step continuity errors : sum local = 5.39722e-08, global = -5.39277e-21, cumulative = -3.82685e-19
DICPCG:  Solving for p, Initial residual = 0.000302315, Final residual = 7.38904e-07, No Iterations 24
time step continuity errors : sum local = 3.27526e-10, global = 1.61553e-19, cumulative = -2.21132e-19
ExecutionTime = 0.31 s  ClockTime = 1 s

Time = 0.068

Courant Number mean: 0.0275521 max: 0.152612
smoothSolver:  Solving for Ux, Initial residual = 0.00266593, Final residual = 5.77972e-08, No Iterations 2
smoothSolver:  Solving for Uy, Initial residual = 0.00334404, Final residual = 8.31921e-08, No Iterations 2
DICPCG:  Solving for p, Initial residual = 0.00238705, Final residual = 0.000112239, No Iterations 9
time step continuity errors : sum local = 5.31171e-08, global = 5.23936e-20, cumulative = -1.68738e-19
DICPCG:  Solving for p, Initial residual = 0.000300707, Final residual = 7.36701e-07, No Iterations 24
time step continuity errors : sum local = 3.27141e-10, global = -8.41739e-20, cumulative = -2.52912e-19
ExecutionTime = 0.31 s  ClockTime = 1 s

Time = 0.069

Courant Number mean: 0.02769 max: 0.152878
smoothSolver:  Solving for Ux, Initial residual = 0.00261719, Final residual = 5.67574e-08, No Iterations 2
smoothSolver:  Solving for Uy, Initial residual = 0.00328677, Final residual = 8.16973e-08, No Iterations 2
DICPCG:  Solving for p, Initial residual = 0.0024333, Final residual = 0.000110121, No Iterations 9
time step continuity errors : sum local = 5.22041e-08, global = 2.14116e-20, cumulative = -2.31501e-19
DICPCG:  Solving for p, Initial residual = 0.000297189, Final residual = 7.37756e-07, No Iterations 24
time step continuity errors : sum local = 3.28208e-10, global = -1.21732e-19, cumulative = -3.53233e-19
ExecutionTime = 0.31 s  ClockTime = 1 s

Time = 0.07

Courant Number mean: 0.0278254 max: 0.153138
smoothSolver:  Solving for Ux, Initial residual = 0.00256971, Final residual = 5.57852e-08, No Iterations 2
smoothSolver:  Solving for Uy, Initial residual = 0.00323166, Final residual = 8.02553e-08, No Iterations 2
DICPCG:  Solving for p, Initial residual = 0.00302473, Final residual = 0.00010601, No Iterations 9
time step continuity errors : sum local = 5.02108e-08, global = 3.65738e-20, cumulative = -3.16659e-19
DICPCG:  Solving for p, Initial residual = 0.000321076, Final residual = 8.71223e-07, No Iterations 24
time step continuity errors : sum local = 3.87564e-10, global = -3.2897e-20, cumulative = -3.49556e-19
ExecutionTime = 0.33 s  ClockTime = 1 s

Time = 0.071

Courant Number mean: 0.02796 max: 0.153391
smoothSolver:  Solving for Ux, Initial residual = 0.00252315, Final residual = 5.48615e-08, No Iterations 2
smoothSolver:  Solving for Uy, Initial residual = 0.00318104, Final residual = 7.89055e-08, No Iterations 2
DICPCG:  Solving for p, Initial residual = 0.00308743, Final residual = 0.000115809, No Iterations 9
time step continuity errors : sum local = 5.50866e-08, global = -1.0798e-19, cumulative = -4.57536e-19
DICPCG:  Solving for p, Initial residual = 0.000280207, Final residual = 6.03983e-07, No Iterations 24
time step continuity errors : sum local = 2.71416e-10, global = 1.20454e-19, cumulative = -3.37082e-19
ExecutionTime = 0.33 s  ClockTime = 1 s

Time = 0.072

Courant Number mean: 0.0280928 max: 0.153638
smoothSolver:  Solving for Ux, Initial residual = 0.0024792, Final residual = 5.39789e-08, No Iterations 2
smoothSolver:  Solving for Uy, Initial residual = 0.0031244, Final residual = 7.74682e-08, No Iterations 2
DICPCG:  Solving for p, Initial residual = 0.0022748, Final residual = 0.000101435, No Iterations 9
time step continuity errors : sum local = 4.85078e-08, global = 1.36601e-19, cumulative = -2.00481e-19
DICPCG:  Solving for p, Initial residual = 0.000278626, Final residual = 7.05747e-07, No Iterations 24
time step continuity errors : sum local = 3.16219e-10, global = 4.32243e-20, cumulative = -1.57257e-19
ExecutionTime = 0.33 s  ClockTime = 1 s

Time = 0.073

Courant Number mean: 0.0282233 max: 0.153879
smoothSolver:  Solving for Ux, Initial residual = 0.00243646, Final residual = 5.31163e-08, No Iterations 2
smoothSolver:  Solving for Uy, Initial residual = 0.00307321, Final residual = 7.6141e-08, No Iterations 2
DICPCG:  Solving for p, Initial residual = 0.00219264, Final residual = 9.80939e-05, No Iterations 9
time step continuity errors : sum local = 4.70582e-08, global = -9.97414e-20, cumulative = -2.56998e-19
DICPCG:  Solving for p, Initial residual = 0.000276448, Final residual = 7.07157e-07, No Iterations 24
time step continuity errors : sum local = 3.17308e-10, global = -2.1606e-20, cumulative = -2.78604e-19
ExecutionTime = 0.33 s  ClockTime = 1 s

Time = 0.074

Courant Number mean: 0.0283516 max: 0.154113
smoothSolver:  Solving for Ux, Initial residual = 0.00239474, Final residual = 5.22846e-08, No Iterations 2
smoothSolver:  Solving for Uy, Initial residual = 0.00302389, Final residual = 7.48638e-08, No Iterations 2
DICPCG:  Solving for p, Initial residual = 0.00217679, Final residual = 9.59752e-05, No Iterations 9
time step continuity errors : sum local = 4.61384e-08, global = 4.21856e-21, cumulative = -2.74386e-19
DICPCG:  Solving for p, Initial residual = 0.000272812, Final residual = 7.03406e-07, No Iterations 24
time step continuity errors : sum local = 3.16181e-10, global = -4.04574e-20, cumulative = -3.14843e-19
ExecutionTime = 0.34 s  ClockTime = 1 s

Time = 0.075

Courant Number mean: 0.0284778 max: 0.154342
smoothSolver:  Solving for Ux, Initial residual = 0.00235405, Final residual = 5.14734e-08, No Iterations 2
smoothSolver:  Solving for Uy, Initial residual = 0.00297608, Final residual = 7.36259e-08, No Iterations 2
DICPCG:  Solving for p, Initial residual = 0.00218118, Final residual = 9.50058e-05, No Iterations 9
time step continuity errors : sum local = 4.57411e-08, global = -3.81454e-20, cumulative = -3.52989e-19
DICPCG:  Solving for p, Initial residual = 0.000269298, Final residual = 7.00944e-07, No Iterations 24
time step continuity errors : sum local = 3.15605e-10, global = 7.79742e-20, cumulative = -2.75015e-19
ExecutionTime = 0.34 s  ClockTime = 1 s

Time = 0.076

Courant Number mean: 0.028602 max: 0.154566
smoothSolver:  Solving for Ux, Initial residual = 0.00231439, Final residual = 5.06896e-08, No Iterations 2
smoothSolver:  Solving for Uy, Initial residual = 0.00292991, Final residual = 7.24266e-08, No Iterations 2
DICPCG:  Solving for p, Initial residual = 0.00227691, Final residual = 9.76847e-05, No Iterations 9
time step continuity errors : sum local = 4.71072e-08, global = -1.26972e-21, cumulative = -2.76284e-19
DICPCG:  Solving for p, Initial residual = 0.000266951, Final residual = 7.13109e-07, No Iterations 24
time step continuity errors : sum local = 3.21464e-10, global = 2.48741e-19, cumulative = -2.75428e-20
ExecutionTime = 0.35 s  ClockTime = 1 s

Time = 0.077

Courant Number mean: 0.0287242 max: 0.154784
smoothSolver:  Solving for Ux, Initial residual = 0.00227654, Final residual = 4.99292e-08, No Iterations 2
smoothSolver:  Solving for Uy, Initial residual = 0.00288563, Final residual = 7.12731e-08, No Iterations 2
DICPCG:  Solving for p, Initial residual = 0.00216381, Final residual = 9.20409e-05, No Iterations 9
time step continuity errors : sum local = 4.43838e-08, global = 6.18483e-20, cumulative = 3.43055e-20
DICPCG:  Solving for p, Initial residual = 0.000259937, Final residual = 7.03796e-07, No Iterations 24
time step continuity errors : sum local = 3.18432e-10, global = 5.42548e-20, cumulative = 8.85603e-20
ExecutionTime = 0.36 s  ClockTime = 1 s

Time = 0.078

Courant Number mean: 0.0288447 max: 0.154997
smoothSolver:  Solving for Ux, Initial residual = 0.00223948, Final residual = 4.91856e-08, No Iterations 2
smoothSolver:  Solving for Uy, Initial residual = 0.00284094, Final residual = 7.01155e-08, No Iterations 2
DICPCG:  Solving for p, Initial residual = 0.00243581, Final residual = 9.98528e-05, No Iterations 9
time step continuity errors : sum local = 4.79749e-08, global = -1.00664e-19, cumulative = -1.21035e-20
DICPCG:  Solving for p, Initial residual = 0.000264138, Final residual = 7.62165e-07, No Iterations 24
time step continuity errors : sum local = 3.45259e-10, global = 9.11967e-20, cumulative = 7.90932e-20
ExecutionTime = 0.36 s  ClockTime = 1 s

Time = 0.079

Courant Number mean: 0.0289639 max: 0.155205
smoothSolver:  Solving for Ux, Initial residual = 0.00220326, Final residual = 4.84653e-08, No Iterations 2
smoothSolver:  Solving for Uy, Initial residual = 0.00279651, Final residual = 6.89706e-08, No Iterations 2
DICPCG:  Solving for p, Initial residual = 0.00219701, Final residual = 8.95883e-05, No Iterations 9
time step continuity errors : sum local = 4.32744e-08, global = -5.93792e-20, cumulative = 1.9714e-20
DICPCG:  Solving for p, Initial residual = 0.000258285, Final residual = 6.63195e-07, No Iterations 24
time step continuity errors : sum local = 3.01245e-10, global = -8.45255e-20, cumulative = -6.48114e-20
ExecutionTime = 0.36 s  ClockTime = 1 s

Time = 0.08

Courant Number mean: 0.0290813 max: 0.155409
smoothSolver:  Solving for Ux, Initial residual = 0.00216785, Final residual = 4.77786e-08, No Iterations 2
smoothSolver:  Solving for Uy, Initial residual = 0.00275535, Final residual = 6.7903e-08, No Iterations 2
DICPCG:  Solving for p, Initial residual = 0.00197939, Final residual = 8.28597e-05, No Iterations 9
time step continuity errors : sum local = 4.04344e-08, global = 6.53555e-20, cumulative = 5.44129e-22
DICPCG:  Solving for p, Initial residual = 0.000249086, Final residual = 6.60281e-07, No Iterations 24
time step continuity errors : sum local = 3.00016e-10, global = -1.00287e-19, cumulative = -9.97432e-20
ExecutionTime = 0.36 s  ClockTime = 1 s

Time = 0.081

Courant Number mean: 0.029197 max: 0.155608
smoothSolver:  Solving for Ux, Initial residual = 0.00213335, Final residual = 4.71126e-08, No Iterations 2
smoothSolver:  Solving for Uy, Initial residual = 0.00271489, Final residual = 6.68574e-08, No Iterations 2
DICPCG:  Solving for p, Initial residual = 0.00195233, Final residual = 8.10207e-05, No Iterations 9
time step continuity errors : sum local = 3.96198e-08, global = 6.23694e-21, cumulative = -9.35063e-20
DICPCG:  Solving for p, Initial residual = 0.000245556, Final residual = 6.58002e-07, No Iterations 24
time step continuity errors : sum local = 2.99452e-10, global = -1.54004e-19, cumulative = -2.47511e-19
ExecutionTime = 0.37 s  ClockTime = 1 s

Time = 0.082

Courant Number mean: 0.029311 max: 0.155803
smoothSolver:  Solving for Ux, Initial residual = 0.00209975, Final residual = 9.87438e-06, No Iterations 1
smoothSolver:  Solving for Uy, Initial residual = 0.00267545, Final residual = 6.58385e-08, No Iterations 2
DICPCG:  Solving for p, Initial residual = 0.00192545, Final residual = 7.98328e-05, No Iterations 9
time step continuity errors : sum local = 3.89178e-08, global = -8.8467e-20, cumulative = -3.35978e-19
DICPCG:  Solving for p, Initial residual = 0.000244236, Final residual = 6.00522e-07, No Iterations 24
time step continuity errors : sum local = 2.74256e-10, global = -7.63322e-20, cumulative = -4.1231e-19
ExecutionTime = 0.38 s  ClockTime = 1 s

Time = 0.083

Courant Number mean: 0.0294235 max: 0.155993
smoothSolver:  Solving for Ux, Initial residual = 0.0020669, Final residual = 9.73371e-06, No Iterations 1
smoothSolver:  Solving for Uy, Initial residual = 0.00263696, Final residual = 6.48459e-08, No Iterations 2
DICPCG:  Solving for p, Initial residual = 0.0019014, Final residual = 7.80577e-05, No Iterations 9
time step continuity errors : sum local = 3.8145e-08, global = -6.29903e-20, cumulative = -4.753e-19
DICPCG:  Solving for p, Initial residual = 0.000240748, Final residual = 5.93407e-07, No Iterations 24
time step continuity errors : sum local = 2.71416e-10, global = -3.15569e-21, cumulative = -4.78456e-19
ExecutionTime = 0.38 s  ClockTime = 1 s

Time = 0.084

Courant Number mean: 0.0295342 max: 0.156179
smoothSolver:  Solving for Ux, Initial residual = 0.00203483, Final residual = 9.59587e-06, No Iterations 1
smoothSolver:  Solving for Uy, Initial residual = 0.00259937, Final residual = 6.38782e-08, No Iterations 2
DICPCG:  Solving for p, Initial residual = 0.00187895, Final residual = 7.63398e-05, No Iterations 9
time step continuity errors : sum local = 3.73848e-08, global = 2.42529e-20, cumulative = -4.54203e-19
DICPCG:  Solving for p, Initial residual = 0.000237363, Final residual = 9.95025e-07, No Iterations 21
time step continuity errors : sum local = 4.54381e-10, global = 1.1619e-19, cumulative = -3.38013e-19
ExecutionTime = 0.38 s  ClockTime = 1 s

Time = 0.085

Courant Number mean: 0.0296433 max: 0.156361
smoothSolver:  Solving for Ux, Initial residual = 0.00200398, Final residual = 9.46085e-06, No Iterations 1
smoothSolver:  Solving for Uy, Initial residual = 0.00256263, Final residual = 6.29341e-08, No Iterations 2
DICPCG:  Solving for p, Initial residual = 0.00185673, Final residual = 7.47313e-05, No Iterations 9
time step continuity errors : sum local = 3.66751e-08, global = -2.14432e-19, cumulative = -5.52445e-19
DICPCG:  Solving for p, Initial residual = 0.000234081, Final residual = 9.91365e-07, No Iterations 21
time step continuity errors : sum local = 4.53369e-10, global = 1.58151e-19, cumulative = -3.94294e-19
ExecutionTime = 0.39 s  ClockTime = 1 s

Time = 0.086

Courant Number mean: 0.0297507 max: 0.156539
smoothSolver:  Solving for Ux, Initial residual = 0.0019739, Final residual = 9.32831e-06, No Iterations 1
smoothSolver:  Solving for Uy, Initial residual = 0.00252671, Final residual = 6.20129e-08, No Iterations 2
DICPCG:  Solving for p, Initial residual = 0.00183515, Final residual = 7.30814e-05, No Iterations 9
time step continuity errors : sum local = 3.59395e-08, global = -3.47561e-20, cumulative = -4.2905e-19
DICPCG:  Solving for p, Initial residual = 0.000230767, Final residual = 9.44236e-07, No Iterations 21
time step continuity errors : sum local = 4.32286e-10, global = -3.95186e-21, cumulative = -4.33002e-19
ExecutionTime = 0.39 s  ClockTime = 1 s

Time = 0.087

Courant Number mean: 0.0298566 max: 0.156713
smoothSolver:  Solving for Ux, Initial residual = 0.00194444, Final residual = 9.19837e-06, No Iterations 1
smoothSolver:  Solving for Uy, Initial residual = 0.00249163, Final residual = 6.11146e-08, No Iterations 2
DICPCG:  Solving for p, Initial residual = 0.00181346, Final residual = 7.15181e-05, No Iterations 9
time step continuity errors : sum local = 3.52429e-08, global = -9.81057e-20, cumulative = -5.31108e-19
DICPCG:  Solving for p, Initial residual = 0.000227529, Final residual = 9.12086e-07, No Iterations 21
time step continuity errors : sum local = 4.18053e-10, global = -2.28136e-20, cumulative = -5.53921e-19
ExecutionTime = 0.39 s  ClockTime = 1 s

Time = 0.088

Courant Number mean: 0.0299609 max: 0.156884
smoothSolver:  Solving for Ux, Initial residual = 0.00191572, Final residual = 9.07122e-06, No Iterations 1
smoothSolver:  Solving for Uy, Initial residual = 0.00245735, Final residual = 6.02384e-08, No Iterations 2
DICPCG:  Solving for p, Initial residual = 0.0017921, Final residual = 6.99926e-05, No Iterations 9
time step continuity errors : sum local = 3.45629e-08, global = 1.05962e-19, cumulative = -4.47959e-19
DICPCG:  Solving for p, Initial residual = 0.000224377, Final residual = 8.81826e-07, No Iterations 21
time step continuity errors : sum local = 4.04674e-10, global = -2.11696e-19, cumulative = -6.59656e-19
ExecutionTime = 0.4 s  ClockTime = 1 s

Time = 0.089

Courant Number mean: 0.0300637 max: 0.157051
smoothSolver:  Solving for Ux, Initial residual = 0.00188768, Final residual = 8.94651e-06, No Iterations 1
smoothSolver:  Solving for Uy, Initial residual = 0.00242384, Final residual = 5.93834e-08, No Iterations 2
DICPCG:  Solving for p, Initial residual = 0.00177085, Final residual = 6.85289e-05, No Iterations 9
time step continuity errors : sum local = 3.39103e-08, global = 4.60535e-21, cumulative = -6.5505e-19
DICPCG:  Solving for p, Initial residual = 0.000221293, Final residual = 8.53224e-07, No Iterations 21
time step continuity errors : sum local = 3.92007e-10, global = 1.0116e-19, cumulative = -5.5389e-19
ExecutionTime = 0.41 s  ClockTime = 1 s

Time = 0.09

Courant Number mean: 0.030165 max: 0.157214
smoothSolver:  Solving for Ux, Initial residual = 0.00186038, Final residual = 8.82413e-06, No Iterations 1
smoothSolver:  Solving for Uy, Initial residual = 0.00239109, Final residual = 5.8549e-08, No Iterations 2
DICPCG:  Solving for p, Initial residual = 0.00174993, Final residual = 6.71022e-05, No Iterations 9
time step continuity errors : sum local = 3.32724e-08, global = -1.22561e-19, cumulative = -6.76452e-19
DICPCG:  Solving for p, Initial residual = 0.000218306, Final residual = 8.25701e-07, No Iterations 21
time step continuity errors : sum local = 3.79792e-10, global = 7.59186e-20, cumulative = -6.00533e-19
ExecutionTime = 0.41 s  ClockTime = 1 s

Time = 0.091

Courant Number mean: 0.0302648 max: 0.157374
smoothSolver:  Solving for Ux, Initial residual = 0.00183376, Final residual = 8.70403e-06, No Iterations 1
smoothSolver:  Solving for Uy, Initial residual = 0.00235903, Final residual = 5.77336e-08, No Iterations 2
DICPCG:  Solving for p, Initial residual = 0.00172967, Final residual = 6.57219e-05, No Iterations 9
time step continuity errors : sum local = 3.26535e-08, global = -1.6574e-19, cumulative = -7.66273e-19
DICPCG:  Solving for p, Initial residual = 0.000215428, Final residual = 7.99349e-07, No Iterations 21
time step continuity errors : sum local = 3.68074e-10, global = 1.56451e-19, cumulative = -6.09822e-19
ExecutionTime = 0.42 s  ClockTime = 1 s

Time = 0.092

Courant Number mean: 0.0303633 max: 0.157531
smoothSolver:  Solving for Ux, Initial residual = 0.00180785, Final residual = 8.58633e-06, No Iterations 1
smoothSolver:  Solving for Uy, Initial residual = 0.00232765, Final residual = 5.69368e-08, No Iterations 2
DICPCG:  Solving for p, Initial residual = 0.00171041, Final residual = 6.44073e-05, No Iterations 9
time step continuity errors : sum local = 3.20616e-08, global = 6.43402e-20, cumulative = -5.45482e-19
DICPCG:  Solving for p, Initial residual = 0.000212663, Final residual = 7.74478e-07, No Iterations 21
time step continuity errors : sum local = 3.57004e-10, global = 1.37848e-19, cumulative = -4.07634e-19
ExecutionTime = 0.42 s  ClockTime = 1 s

Time = 0.093

Courant Number mean: 0.0304604 max: 0.157685
smoothSolver:  Solving for Ux, Initial residual = 0.00178272, Final residual = 8.47111e-06, No Iterations 1
smoothSolver:  Solving for Uy, Initial residual = 0.00229696, Final residual = 5.61587e-08, No Iterations 2
DICPCG:  Solving for p, Initial residual = 0.00169657, Final residual = 6.32248e-05, No Iterations 9
time step continuity errors : sum local = 3.15209e-08, global = 8.36238e-20, cumulative = -3.24011e-19
DICPCG:  Solving for p, Initial residual = 0.000210207, Final residual = 7.55284e-07, No Iterations 21
time step continuity errors : sum local = 3.48539e-10, global = -2.54978e-20, cumulative = -3.49508e-19
ExecutionTime = 0.42 s  ClockTime = 1 s

Time = 0.094

Courant Number mean: 0.0305561 max: 0.157835
smoothSolver:  Solving for Ux, Initial residual = 0.00175831, Final residual = 8.35799e-06, No Iterations 1
smoothSolver:  Solving for Uy, Initial residual = 0.00226694, Final residual = 5.53986e-08, No Iterations 2
DICPCG:  Solving for p, Initial residual = 0.001677, Final residual = 6.20314e-05, No Iterations 9
time step continuity errors : sum local = 3.09971e-08, global = 1.94263e-20, cumulative = -3.30082e-19
DICPCG:  Solving for p, Initial residual = 0.000207198, Final residual = 7.21326e-07, No Iterations 21
time step continuity errors : sum local = 3.33151e-10, global = 4.87458e-20, cumulative = -2.81336e-19
ExecutionTime = 0.42 s  ClockTime = 1 s

Time = 0.095

Courant Number mean: 0.0306505 max: 0.157983
smoothSolver:  Solving for Ux, Initial residual = 0.00173445, Final residual = 8.24693e-06, No Iterations 1
smoothSolver:  Solving for Uy, Initial residual = 0.00223757, Final residual = 5.46563e-08, No Iterations 2
DICPCG:  Solving for p, Initial residual = 0.0016862, Final residual = 6.23381e-05, No Iterations 9
time step continuity errors : sum local = 3.12086e-08, global = 1.19066e-19, cumulative = -1.6227e-19
DICPCG:  Solving for p, Initial residual = 0.000204889, Final residual = 6.58642e-07, No Iterations 21
time step continuity errors : sum local = 3.04276e-10, global = 1.92282e-19, cumulative = 3.00124e-20
ExecutionTime = 0.44 s  ClockTime = 1 s

Time = 0.096

Courant Number mean: 0.0307437 max: 0.158128
smoothSolver:  Solving for Ux, Initial residual = 0.00171135, Final residual = 8.13841e-06, No Iterations 1
smoothSolver:  Solving for Uy, Initial residual = 0.00220889, Final residual = 5.39328e-08, No Iterations 2
DICPCG:  Solving for p, Initial residual = 0.00166349, Final residual = 6.16168e-05, No Iterations 9
time step continuity errors : sum local = 3.08352e-08, global = -1.56705e-19, cumulative = -1.26693e-19
DICPCG:  Solving for p, Initial residual = 0.000201856, Final residual = 6.54148e-07, No Iterations 21
time step continuity errors : sum local = 3.02585e-10, global = 7.67169e-20, cumulative = -4.99759e-20
ExecutionTime = 0.44 s  ClockTime = 1 s

Time = 0.097

Courant Number mean: 0.0308356 max: 0.158269
smoothSolver:  Solving for Ux, Initial residual = 0.00168866, Final residual = 8.03169e-06, No Iterations 1
smoothSolver:  Solving for Uy, Initial residual = 0.00218094, Final residual = 5.32268e-08, No Iterations 2
DICPCG:  Solving for p, Initial residual = 0.00169008, Final residual = 6.38947e-05, No Iterations 9
time step continuity errors : sum local = 3.19217e-08, global = -5.78096e-20, cumulative = -1.07786e-19
DICPCG:  Solving for p, Initial residual = 0.000199875, Final residual = 5.91994e-07, No Iterations 21
time step continuity errors : sum local = 2.73874e-10, global = 1.84068e-20, cumulative = -8.93787e-20
ExecutionTime = 0.44 s  ClockTime = 1 s

Time = 0.098

Courant Number mean: 0.0309262 max: 0.158408
smoothSolver:  Solving for Ux, Initial residual = 0.00166648, Final residual = 7.92731e-06, No Iterations 1
smoothSolver:  Solving for Uy, Initial residual = 0.00215373, Final residual = 5.25411e-08, No Iterations 2
DICPCG:  Solving for p, Initial residual = 0.00167258, Final residual = 6.28399e-05, No Iterations 9
time step continuity errors : sum local = 3.14337e-08, global = -7.66528e-20, cumulative = -1.66031e-19
DICPCG:  Solving for p, Initial residual = 0.000197163, Final residual = 5.82895e-07, No Iterations 21
time step continuity errors : sum local = 2.69924e-10, global = 1.2424e-19, cumulative = -4.1791e-20
ExecutionTime = 0.44 s  ClockTime = 1 s

Time = 0.099

Courant Number mean: 0.0310159 max: 0.158545
smoothSolver:  Solving for Ux, Initial residual = 0.00164487, Final residual = 7.8251e-06, No Iterations 1
smoothSolver:  Solving for Uy, Initial residual = 0.00212702, Final residual = 5.1869e-08, No Iterations 2
DICPCG:  Solving for p, Initial residual = 0.0016959, Final residual = 6.05534e-05, No Iterations 9
time step continuity errors : sum local = 3.02106e-08, global = 2.05658e-20, cumulative = -2.12253e-20
DICPCG:  Solving for p, Initial residual = 0.00019549, Final residual = 8.10604e-07, No Iterations 21
time step continuity errors : sum local = 3.76906e-10, global = -1.26685e-19, cumulative = -1.4791e-19
ExecutionTime = 0.45 s  ClockTime = 1 s

Time = 0.1

Courant Number mean: 0.0311045 max: 0.158678
smoothSolver:  Solving for Ux, Initial residual = 0.00162406, Final residual = 7.72399e-06, No Iterations 1
smoothSolver:  Solving for Uy, Initial residual = 0.00209972, Final residual = 5.11791e-08, No Iterations 2
DICPCG:  Solving for p, Initial residual = 0.00175939, Final residual = 6.01085e-05, No Iterations 9
time step continuity errors : sum local = 2.99979e-08, global = -3.40943e-20, cumulative = -1.82004e-19
DICPCG:  Solving for p, Initial residual = 0.00019492, Final residual = 8.22909e-07, No Iterations 21
time step continuity errors : sum local = 3.831e-10, global = -1.51837e-19, cumulative = -3.33842e-19
ExecutionTime = 0.46 s  ClockTime = 1 s

Time = 0.101

Courant Number mean: 0.0311919 max: 0.15881
smoothSolver:  Solving for Ux, Initial residual = 0.00160392, Final residual = 7.62471e-06, No Iterations 1
smoothSolver:  Solving for Uy, Initial residual = 0.00207271, Final residual = 5.04967e-08, No Iterations 2
DICPCG:  Solving for p, Initial residual = 0.00155181, Final residual = 5.40148e-05, No Iterations 9
time step continuity errors : sum local = 2.73822e-08, global = -2.29977e-20, cumulative = -3.56839e-19
DICPCG:  Solving for p, Initial residual = 0.000190274, Final residual = 6.0061e-07, No Iterations 21
time step continuity errors : sum local = 2.79194e-10, global = 1.4846e-19, cumulative = -2.08379e-19
ExecutionTime = 0.46 s  ClockTime = 1 s

Time = 0.102

Courant Number mean: 0.0312783 max: 0.158938
smoothSolver:  Solving for Ux, Initial residual = 0.00158392, Final residual = 7.52934e-06, No Iterations 1
smoothSolver:  Solving for Uy, Initial residual = 0.0020473, Final residual = 4.98593e-08, No Iterations 2
DICPCG:  Solving for p, Initial residual = 0.00153781, Final residual = 5.3441e-05, No Iterations 9
time step continuity errors : sum local = 2.71107e-08, global = -6.65467e-21, cumulative = -2.15034e-19
DICPCG:  Solving for p, Initial residual = 0.000188132, Final residual = 6.14485e-07, No Iterations 21
time step continuity errors : sum local = 2.86021e-10, global = -7.79101e-20, cumulative = -2.92944e-19
ExecutionTime = 0.46 s  ClockTime = 1 s

Time = 0.103

Courant Number mean: 0.0313635 max: 0.159065
smoothSolver:  Solving for Ux, Initial residual = 0.00156427, Final residual = 7.43637e-06, No Iterations 1
smoothSolver:  Solving for Uy, Initial residual = 0.00202228, Final residual = 9.92384e-06, No Iterations 1
DICPCG:  Solving for p, Initial residual = 0.00161445, Final residual = 5.52772e-05, No Iterations 9
time step continuity errors : sum local = 2.81324e-08, global = 3.2045e-20, cumulative = -2.60899e-19
DICPCG:  Solving for p, Initial residual = 0.000179987, Final residual = 7.79427e-07, No Iterations 21
time step continuity errors : sum local = 3.64257e-10, global = 6.14058e-20, cumulative = -1.99493e-19
ExecutionTime = 0.47 s  ClockTime = 1 s

Time = 0.104

Courant Number mean: 0.0314484 max: 0.159189
smoothSolver:  Solving for Ux, Initial residual = 0.00154543, Final residual = 7.34566e-06, No Iterations 1
smoothSolver:  Solving for Uy, Initial residual = 0.0019972, Final residual = 9.79927e-06, No Iterations 1
DICPCG:  Solving for p, Initial residual = 0.00165374, Final residual = 5.46668e-05, No Iterations 9
time step continuity errors : sum local = 2.78357e-08, global = 5.77165e-21, cumulative = -1.93721e-19
DICPCG:  Solving for p, Initial residual = 0.000177697, Final residual = 5.04566e-07, No Iterations 21
time step continuity errors : sum local = 2.35108e-10, global = 1.52172e-19, cumulative = -4.15491e-20
ExecutionTime = 0.47 s  ClockTime = 1 s

Time = 0.105

Courant Number mean: 0.0315334 max: 0.159311
smoothSolver:  Solving for Ux, Initial residual = 0.00152694, Final residual = 7.25802e-06, No Iterations 1
smoothSolver:  Solving for Uy, Initial residual = 0.00197323, Final residual = 9.67973e-06, No Iterations 1
DICPCG:  Solving for p, Initial residual = 0.00195058, Final residual = 6.23572e-05, No Iterations 9
time step continuity errors : sum local = 3.14865e-08, global = 2.82813e-20, cumulative = -1.32678e-20
DICPCG:  Solving for p, Initial residual = 0.000184517, Final residual = 7.13569e-07, No Iterations 21
time step continuity errors : sum local = 3.34121e-10, global = 8.74743e-21, cumulative = -4.52036e-21
ExecutionTime = 0.47 s  ClockTime = 1 s

Time = 0.106

Courant Number mean: 0.0316184 max: 0.159432
[...]
time step continuity errors : sum local = 3.1073e-10, global = -1.6719e-19, cumulative = -1.14806e-17
ExecutionTime = 21.24 s  ClockTime = 55 s

Time = 4.974

Courant Number mean: 0.0443729 max: 0.167999
smoothSolver:  Solving for Ux, Initial residual = 2.2132e-09, Final residual = 2.2132e-09, No Iterations 0
smoothSolver:  Solving for Uy, Initial residual = 2.65046e-09, Final residual = 2.65046e-09, No Iterations 0
DICPCG:  Solving for p, Initial residual = 1.0979e-06, Final residual = 1.71375e-08, No Iterations 1
time step continuity errors : sum local = 8.90208e-12, global = 1.35509e-19, cumulative = -1.13451e-17
DICPCG:  Solving for p, Initial residual = 2.70198e-08, Final residual = 2.70198e-08, No Iterations 0
time step continuity errors : sum local = 1.39884e-11, global = 1.00602e-19, cumulative = -1.12445e-17
ExecutionTime = 21.24 s  ClockTime = 55 s

Time = 4.975

Courant Number mean: 0.0443729 max: 0.167999
smoothSolver:  Solving for Ux, Initial residual = 2.27759e-09, Final residual = 2.27759e-09, No Iterations 0
smoothSolver:  Solving for Uy, Initial residual = 2.71951e-09, Final residual = 2.71951e-09, No Iterations 0
DICPCG:  Solving for p, Initial residual = 5.46727e-07, Final residual = 5.46727e-07, No Iterations 0
time step continuity errors : sum local = 2.81471e-10, global = -2.15034e-19, cumulative = -1.14595e-17
DICPCG:  Solving for p, Initial residual = 5.63585e-07, Final residual = 5.63585e-07, No Iterations 0
time step continuity errors : sum local = 2.90147e-10, global = 1.63947e-20, cumulative = -1.14431e-17
ExecutionTime = 21.26 s  ClockTime = 55 s

Time = 4.976

Courant Number mean: 0.0443729 max: 0.167999
smoothSolver:  Solving for Ux, Initial residual = 2.07032e-09, Final residual = 2.07032e-09, No Iterations 0
smoothSolver:  Solving for Uy, Initial residual = 2.48274e-09, Final residual = 2.48274e-09, No Iterations 0
DICPCG:  Solving for p, Initial residual = 1.02446e-06, Final residual = 1.61976e-08, No Iterations 1
time step continuity errors : sum local = 8.40241e-12, global = 6.0318e-20, cumulative = -1.13828e-17
DICPCG:  Solving for p, Initial residual = 2.49424e-08, Final residual = 2.49424e-08, No Iterations 0
time step continuity errors : sum local = 1.29045e-11, global = -2.50702e-19, cumulative = -1.16335e-17
ExecutionTime = 21.26 s  ClockTime = 55 s

Time = 4.977

Courant Number mean: 0.0443729 max: 0.167999
smoothSolver:  Solving for Ux, Initial residual = 2.13672e-09, Final residual = 2.13672e-09, No Iterations 0
smoothSolver:  Solving for Uy, Initial residual = 2.56324e-09, Final residual = 2.56324e-09, No Iterations 0
DICPCG:  Solving for p, Initial residual = 5.09726e-07, Final residual = 5.09726e-07, No Iterations 0
time step continuity errors : sum local = 2.62423e-10, global = -6.1658e-20, cumulative = -1.16951e-17
DICPCG:  Solving for p, Initial residual = 5.25278e-07, Final residual = 5.25278e-07, No Iterations 0
time step continuity errors : sum local = 2.70427e-10, global = -5.04249e-20, cumulative = -1.17456e-17
ExecutionTime = 21.26 s  ClockTime = 55 s

Time = 4.978

Courant Number mean: 0.0443729 max: 0.167999
smoothSolver:  Solving for Ux, Initial residual = 1.94198e-09, Final residual = 1.94198e-09, No Iterations 0
smoothSolver:  Solving for Uy, Initial residual = 2.32924e-09, Final residual = 2.32924e-09, No Iterations 0
DICPCG:  Solving for p, Initial residual = 9.54866e-07, Final residual = 9.54866e-07, No Iterations 0
time step continuity errors : sum local = 4.91533e-10, global = 3.96881e-20, cumulative = -1.17059e-17
DICPCG:  Solving for p, Initial residual = 9.68259e-07, Final residual = 9.68259e-07, No Iterations 0
time step continuity errors : sum local = 4.98426e-10, global = -1.39214e-19, cumulative = -1.18451e-17
ExecutionTime = 21.27 s  ClockTime = 55 s

Time = 4.979

Courant Number mean: 0.0443729 max: 0.167999
smoothSolver:  Solving for Ux, Initial residual = 1.76853e-09, Final residual = 1.76853e-09, No Iterations 0
smoothSolver:  Solving for Uy, Initial residual = 2.12991e-09, Final residual = 2.12991e-09, No Iterations 0
DICPCG:  Solving for p, Initial residual = 1.34452e-06, Final residual = 2.25956e-08, No Iterations 1
time step continuity errors : sum local = 1.17173e-11, global = -5.60663e-20, cumulative = -1.19012e-17
DICPCG:  Solving for p, Initial residual = 4.02908e-08, Final residual = 4.02908e-08, No Iterations 0
time step continuity errors : sum local = 2.08249e-11, global = 1.43367e-19, cumulative = -1.17578e-17
ExecutionTime = 21.27 s  ClockTime = 55 s

Time = 4.98

Courant Number mean: 0.0443729 max: 0.167999
smoothSolver:  Solving for Ux, Initial residual = 3.72098e-09, Final residual = 3.72098e-09, No Iterations 0
smoothSolver:  Solving for Uy, Initial residual = 4.46128e-09, Final residual = 4.46128e-09, No Iterations 0
DICPCG:  Solving for p, Initial residual = 8.74826e-07, Final residual = 8.74826e-07, No Iterations 0
time step continuity errors : sum local = 4.50333e-10, global = -6.05496e-21, cumulative = -1.17638e-17
DICPCG:  Solving for p, Initial residual = 9.01816e-07, Final residual = 9.01816e-07, No Iterations 0
time step continuity errors : sum local = 4.64222e-10, global = -6.30312e-21, cumulative = -1.17702e-17
ExecutionTime = 21.27 s  ClockTime = 55 s

Time = 4.981

Courant Number mean: 0.0443729 max: 0.167999
smoothSolver:  Solving for Ux, Initial residual = 3.37644e-09, Final residual = 3.37644e-09, No Iterations 0
smoothSolver:  Solving for Uy, Initial residual = 4.06528e-09, Final residual = 4.06528e-09, No Iterations 0
DICPCG:  Solving for p, Initial residual = 1.64027e-06, Final residual = 2.84206e-08, No Iterations 1
time step continuity errors : sum local = 1.46815e-11, global = 6.40238e-20, cumulative = -1.17061e-17
DICPCG:  Solving for p, Initial residual = 4.12922e-08, Final residual = 4.12922e-08, No Iterations 0
time step continuity errors : sum local = 2.13085e-11, global = 4.70997e-20, cumulative = -1.1659e-17
ExecutionTime = 21.28 s  ClockTime = 55 s

Time = 4.982

Courant Number mean: 0.0443729 max: 0.167999
smoothSolver:  Solving for Ux, Initial residual = 3.4577e-09, Final residual = 3.4577e-09, No Iterations 0
smoothSolver:  Solving for Uy, Initial residual = 4.1467e-09, Final residual = 4.1467e-09, No Iterations 0
DICPCG:  Solving for p, Initial residual = 8.17625e-07, Final residual = 8.17625e-07, No Iterations 0
time step continuity errors : sum local = 4.2089e-10, global = -6.10294e-20, cumulative = -1.17201e-17
DICPCG:  Solving for p, Initial residual = 8.42927e-07, Final residual = 8.42927e-07, No Iterations 0
time step continuity errors : sum local = 4.33913e-10, global = -1.70234e-20, cumulative = -1.17371e-17
ExecutionTime = 21.28 s  ClockTime = 55 s

Time = 4.983

Courant Number mean: 0.0443729 max: 0.167999
smoothSolver:  Solving for Ux, Initial residual = 3.13368e-09, Final residual = 3.13368e-09, No Iterations 0
smoothSolver:  Solving for Uy, Initial residual = 3.77391e-09, Final residual = 3.77391e-09, No Iterations 0
DICPCG:  Solving for p, Initial residual = 1.53402e-06, Final residual = 2.60494e-08, No Iterations 1
time step continuity errors : sum local = 1.34899e-11, global = -8.89715e-20, cumulative = -1.18261e-17
DICPCG:  Solving for p, Initial residual = 3.74785e-08, Final residual = 3.74785e-08, No Iterations 0
time step continuity errors : sum local = 1.93724e-11, global = -5.27907e-20, cumulative = -1.18788e-17
ExecutionTime = 21.29 s  ClockTime = 55 s

Time = 4.984

Courant Number mean: 0.0443729 max: 0.167999
smoothSolver:  Solving for Ux, Initial residual = 3.22871e-09, Final residual = 3.22871e-09, No Iterations 0
smoothSolver:  Solving for Uy, Initial residual = 3.88516e-09, Final residual = 3.88516e-09, No Iterations 0
DICPCG:  Solving for p, Initial residual = 7.62142e-07, Final residual = 7.62142e-07, No Iterations 0
time step continuity errors : sum local = 3.92344e-10, global = 4.71493e-20, cumulative = -1.18317e-17
DICPCG:  Solving for p, Initial residual = 7.86193e-07, Final residual = 7.86193e-07, No Iterations 0
time step continuity errors : sum local = 4.04722e-10, global = 1.71574e-19, cumulative = -1.16601e-17
ExecutionTime = 21.29 s  ClockTime = 55 s

Time = 4.985

Courant Number mean: 0.0443729 max: 0.167999
smoothSolver:  Solving for Ux, Initial residual = 2.92196e-09, Final residual = 2.92196e-09, No Iterations 0
smoothSolver:  Solving for Uy, Initial residual = 3.51914e-09, Final residual = 3.51914e-09, No Iterations 0
DICPCG:  Solving for p, Initial residual = 1.43158e-06, Final residual = 2.38963e-08, No Iterations 1
time step continuity errors : sum local = 1.23586e-11, global = 7.19647e-20, cumulative = -1.15882e-17
DICPCG:  Solving for p, Initial residual = 3.38189e-08, Final residual = 3.38189e-08, No Iterations 0
time step continuity errors : sum local = 1.74674e-11, global = 8.32144e-21, cumulative = -1.15798e-17
ExecutionTime = 21.29 s  ClockTime = 55 s

Time = 4.986

Courant Number mean: 0.0443729 max: 0.167999
smoothSolver:  Solving for Ux, Initial residual = 2.98543e-09, Final residual = 2.98543e-09, No Iterations 0
smoothSolver:  Solving for Uy, Initial residual = 3.58305e-09, Final residual = 3.58305e-09, No Iterations 0
DICPCG:  Solving for p, Initial residual = 7.09237e-07, Final residual = 7.09237e-07, No Iterations 0
time step continuity errors : sum local = 3.65105e-10, global = 1.71375e-19, cumulative = -1.14085e-17
DICPCG:  Solving for p, Initial residual = 7.31443e-07, Final residual = 7.31443e-07, No Iterations 0
time step continuity errors : sum local = 3.76534e-10, global = -2.61505e-19, cumulative = -1.167e-17
ExecutionTime = 21.3 s  ClockTime = 55 s

Time = 4.987

Courant Number mean: 0.0443729 max: 0.167999
smoothSolver:  Solving for Ux, Initial residual = 2.69818e-09, Final residual = 2.69818e-09, No Iterations 0
smoothSolver:  Solving for Uy, Initial residual = 3.26494e-09, Final residual = 3.26494e-09, No Iterations 0
DICPCG:  Solving for p, Initial residual = 1.33147e-06, Final residual = 2.20791e-08, No Iterations 1
time step continuity errors : sum local = 1.14451e-11, global = -1.08493e-19, cumulative = -1.17785e-17
DICPCG:  Solving for p, Initial residual = 3.09409e-08, Final residual = 3.09409e-08, No Iterations 0
time step continuity errors : sum local = 1.60062e-11, global = -8.5729e-20, cumulative = -1.18642e-17
ExecutionTime = 21.3 s  ClockTime = 55 s

Time = 4.988

Courant Number mean: 0.0443729 max: 0.167999
smoothSolver:  Solving for Ux, Initial residual = 2.76127e-09, Final residual = 2.76127e-09, No Iterations 0
smoothSolver:  Solving for Uy, Initial residual = 3.32935e-09, Final residual = 3.32935e-09, No Iterations 0
DICPCG:  Solving for p, Initial residual = 6.59635e-07, Final residual = 6.59635e-07, No Iterations 0
time step continuity errors : sum local = 3.39582e-10, global = 1.45584e-20, cumulative = -1.18496e-17
DICPCG:  Solving for p, Initial residual = 6.80853e-07, Final residual = 6.80853e-07, No Iterations 0
time step continuity errors : sum local = 3.50502e-10, global = 1.12596e-19, cumulative = -1.1737e-17
ExecutionTime = 21.31 s  ClockTime = 55 s

Time = 4.989

Courant Number mean: 0.0443729 max: 0.167999
smoothSolver:  Solving for Ux, Initial residual = 2.49889e-09, Final residual = 2.49889e-09, No Iterations 0
smoothSolver:  Solving for Uy, Initial residual = 3.04516e-09, Final residual = 3.04516e-09, No Iterations 0
DICPCG:  Solving for p, Initial residual = 1.24002e-06, Final residual = 2.02894e-08, No Iterations 1
time step continuity errors : sum local = 1.05023e-11, global = -1.41531e-19, cumulative = -1.18786e-17
DICPCG:  Solving for p, Initial residual = 2.82106e-08, Final residual = 2.82106e-08, No Iterations 0
time step continuity errors : sum local = 1.45806e-11, global = 2.32504e-19, cumulative = -1.16461e-17
ExecutionTime = 21.31 s  ClockTime = 55 s

Time = 4.99

Courant Number mean: 0.0443729 max: 0.167999
smoothSolver:  Solving for Ux, Initial residual = 2.55013e-09, Final residual = 2.55013e-09, No Iterations 0
smoothSolver:  Solving for Uy, Initial residual = 3.07954e-09, Final residual = 3.07954e-09, No Iterations 0
DICPCG:  Solving for p, Initial residual = 6.11109e-07, Final residual = 6.11109e-07, No Iterations 0
time step continuity errors : sum local = 3.14599e-10, global = -1.0037e-19, cumulative = -1.17464e-17
DICPCG:  Solving for p, Initial residual = 6.30644e-07, Final residual = 6.30644e-07, No Iterations 0
time step continuity errors : sum local = 3.24654e-10, global = 1.32001e-19, cumulative = -1.16144e-17
ExecutionTime = 21.31 s  ClockTime = 55 s

Time = 4.991

Courant Number mean: 0.0443729 max: 0.167999
smoothSolver:  Solving for Ux, Initial residual = 2.31529e-09, Final residual = 2.31529e-09, No Iterations 0
smoothSolver:  Solving for Uy, Initial residual = 2.80386e-09, Final residual = 2.80386e-09, No Iterations 0
DICPCG:  Solving for p, Initial residual = 1.14938e-06, Final residual = 1.85914e-08, No Iterations 1
time step continuity errors : sum local = 9.64772e-12, global = 6.12114e-22, cumulative = -1.16138e-17
DICPCG:  Solving for p, Initial residual = 2.58272e-08, Final residual = 2.58272e-08, No Iterations 0
time step continuity errors : sum local = 1.33719e-11, global = -3.59824e-20, cumulative = -1.16498e-17
ExecutionTime = 21.32 s  ClockTime = 55 s

Time = 4.992

Courant Number mean: 0.0443729 max: 0.167999
smoothSolver:  Solving for Ux, Initial residual = 2.365e-09, Final residual = 2.365e-09, No Iterations 0
smoothSolver:  Solving for Uy, Initial residual = 2.85778e-09, Final residual = 2.85778e-09, No Iterations 0
DICPCG:  Solving for p, Initial residual = 5.65812e-07, Final residual = 5.65812e-07, No Iterations 0
time step continuity errors : sum local = 2.91292e-10, global = -4.47339e-20, cumulative = -1.16945e-17
DICPCG:  Solving for p, Initial residual = 5.83692e-07, Final residual = 5.83692e-07, No Iterations 0
time step continuity errors : sum local = 3.00494e-10, global = -7.36522e-20, cumulative = -1.17682e-17
ExecutionTime = 21.33 s  ClockTime = 55 s

Time = 4.993

Courant Number mean: 0.0443729 max: 0.167999
smoothSolver:  Solving for Ux, Initial residual = 2.13658e-09, Final residual = 2.13658e-09, No Iterations 0
smoothSolver:  Solving for Uy, Initial residual = 2.59415e-09, Final residual = 2.59415e-09, No Iterations 0
DICPCG:  Solving for p, Initial residual = 1.06374e-06, Final residual = 1.70081e-08, No Iterations 1
time step continuity errors : sum local = 8.81588e-12, global = -4.35097e-20, cumulative = -1.18117e-17
DICPCG:  Solving for p, Initial residual = 2.36051e-08, Final residual = 2.36051e-08, No Iterations 0
time step continuity errors : sum local = 1.22123e-11, global = -1.10313e-19, cumulative = -1.1922e-17
ExecutionTime = 21.33 s  ClockTime = 55 s

Time = 4.994

Courant Number mean: 0.0443729 max: 0.167999
smoothSolver:  Solving for Ux, Initial residual = 2.17493e-09, Final residual = 2.17493e-09, No Iterations 0
smoothSolver:  Solving for Uy, Initial residual = 2.63567e-09, Final residual = 2.63567e-09, No Iterations 0
DICPCG:  Solving for p, Initial residual = 5.23518e-07, Final residual = 5.23518e-07, No Iterations 0
time step continuity errors : sum local = 2.69518e-10, global = -4.22193e-20, cumulative = -1.19642e-17
DICPCG:  Solving for p, Initial residual = 5.40109e-07, Final residual = 5.40109e-07, No Iterations 0
time step continuity errors : sum local = 2.78057e-10, global = 1.31025e-19, cumulative = -1.18332e-17
ExecutionTime = 21.33 s  ClockTime = 55 s

Time = 4.995

Courant Number mean: 0.0443729 max: 0.167999
smoothSolver:  Solving for Ux, Initial residual = 1.96421e-09, Final residual = 1.96421e-09, No Iterations 0
smoothSolver:  Solving for Uy, Initial residual = 2.38991e-09, Final residual = 2.38991e-09, No Iterations 0
DICPCG:  Solving for p, Initial residual = 9.84563e-07, Final residual = 9.84563e-07, No Iterations 0
time step continuity errors : sum local = 5.06814e-10, global = -8.0402e-21, cumulative = -1.18412e-17
DICPCG:  Solving for p, Initial residual = 9.98924e-07, Final residual = 9.98924e-07, No Iterations 0
time step continuity errors : sum local = 5.14206e-10, global = 1.77199e-19, cumulative = -1.1664e-17
ExecutionTime = 21.33 s  ClockTime = 55 s

Time = 4.996

Courant Number mean: 0.0443729 max: 0.167999
smoothSolver:  Solving for Ux, Initial residual = 1.78025e-09, Final residual = 1.78025e-09, No Iterations 0
smoothSolver:  Solving for Uy, Initial residual = 2.17761e-09, Final residual = 2.17761e-09, No Iterations 0
DICPCG:  Solving for p, Initial residual = 1.38962e-06, Final residual = 2.30425e-08, No Iterations 1
time step continuity errors : sum local = 1.19436e-11, global = -2.09773e-20, cumulative = -1.1685e-17
DICPCG:  Solving for p, Initial residual = 3.81144e-08, Final residual = 3.81144e-08, No Iterations 0
time step continuity errors : sum local = 1.97009e-11, global = -1.73758e-19, cumulative = -1.18588e-17
ExecutionTime = 21.34 s  ClockTime = 55 s

Time = 4.997

Courant Number mean: 0.0443729 max: 0.167999
smoothSolver:  Solving for Ux, Initial residual = 3.72618e-09, Final residual = 3.72618e-09, No Iterations 0
smoothSolver:  Solving for Uy, Initial residual = 4.55544e-09, Final residual = 4.55544e-09, No Iterations 0
DICPCG:  Solving for p, Initial residual = 9.00986e-07, Final residual = 9.00986e-07, No Iterations 0
time step continuity errors : sum local = 4.63796e-10, global = -9.77231e-20, cumulative = -1.19565e-17
DICPCG:  Solving for p, Initial residual = 9.28674e-07, Final residual = 9.28674e-07, No Iterations 0
time step continuity errors : sum local = 4.78045e-10, global = 4.00521e-20, cumulative = -1.19164e-17
ExecutionTime = 21.35 s  ClockTime = 55 s

Time = 4.998

Courant Number mean: 0.0443729 max: 0.167999
smoothSolver:  Solving for Ux, Initial residual = 3.37266e-09, Final residual = 3.37266e-09, No Iterations 0
smoothSolver:  Solving for Uy, Initial residual = 4.1376e-09, Final residual = 4.1376e-09, No Iterations 0
DICPCG:  Solving for p, Initial residual = 1.69171e-06, Final residual = 2.8341e-08, No Iterations 1
time step continuity errors : sum local = 1.46392e-11, global = 3.95392e-21, cumulative = -1.19125e-17
DICPCG:  Solving for p, Initial residual = 3.86964e-08, Final residual = 3.86964e-08, No Iterations 0
time step continuity errors : sum local = 1.99705e-11, global = 2.11345e-19, cumulative = -1.17011e-17
ExecutionTime = 21.35 s  ClockTime = 55 s

Time = 4.999

Courant Number mean: 0.0443729 max: 0.167999
smoothSolver:  Solving for Ux, Initial residual = 3.42304e-09, Final residual = 3.42304e-09, No Iterations 0
smoothSolver:  Solving for Uy, Initial residual = 4.19156e-09, Final residual = 4.19156e-09, No Iterations 0
DICPCG:  Solving for p, Initial residual = 8.35442e-07, Final residual = 8.35442e-07, No Iterations 0
time step continuity errors : sum local = 4.30058e-10, global = -6.85733e-20, cumulative = -1.17697e-17
DICPCG:  Solving for p, Initial residual = 8.60521e-07, Final residual = 8.60521e-07, No Iterations 0
time step continuity errors : sum local = 4.42966e-10, global = 7.76392e-20, cumulative = -1.16921e-17
ExecutionTime = 21.35 s  ClockTime = 55 s

Time = 5

Courant Number mean: 0.0443729 max: 0.167999
smoothSolver:  Solving for Ux, Initial residual = 3.10619e-09, Final residual = 3.10619e-09, No Iterations 0
smoothSolver:  Solving for Uy, Initial residual = 3.81102e-09, Final residual = 3.81102e-09, No Iterations 0
DICPCG:  Solving for p, Initial residual = 1.56574e-06, Final residual = 2.51134e-08, No Iterations 1
time step continuity errors : sum local = 1.30017e-11, global = 2.95469e-20, cumulative = -1.16625e-17
DICPCG:  Solving for p, Initial residual = 3.51097e-08, Final residual = 3.51097e-08, No Iterations 0
time step continuity errors : sum local = 1.81468e-11, global = -4.30829e-19, cumulative = -1.20934e-17
ExecutionTime = 21.35 s  ClockTime = 55 s

End


real	0m55.624s
user	0m12.498s
sys	0m8.883s
