rm: cannot remove '0.*': No such file or directory
rm: cannot remove '[1-9]*': No such file or directory
/*---------------------------------------------------------------------------*\
| =========                 |                                                 |
| \\      /  F ield         | OpenFOAM: The Open Source CFD Toolbox           |
|  \\    /   O peration     | Version:  2212                                  |
|   \\  /    A nd           | Website:  www.openfoam.com                      |
|    \\/     M anipulation  |                                                 |
\*---------------------------------------------------------------------------*/
Build  : _f8e05934-20230403 OPENFOAM=2212 patch=230110 version=2212
Arch   : "LSB;label=32;scalar=64"
Exec   : blockMesh
Date   : Jun 11 2023
Time   : 14:08:38
Host   : r1i2n30
PID    : 604871
I/O    : uncollated
Case   : /mnt/cases/cavity_nu0.01_U1
nProcs : 1
trapFpe: Floating point exception trapping enabled (FOAM_SIGFPE).
fileModificationChecking : Monitoring run-time modified files using timeStampMaster (fileModificationSkew 5, maxFileModificationPolls 20)
allowSystemOperations : Allowing user-supplied system call operations

// * * * * * * * * * * * * * * * * * * * * * * * * * * * * * * * * * * * * * //
Create time

Creating block mesh from "system/blockMeshDict"
Creating block edges
No non-planar block faces defined
Creating topology blocks

Creating topology patches - from boundary section

Creating block mesh topology - scaling/transform applied later

Check topology

	Basic statistics
		Number of internal faces : 0
		Number of boundary faces : 6
		Number of defined boundary faces : 6
		Number of undefined boundary faces : 0
	Checking patch -> block consistency

Creating block offsets
Creating merge list (topological search)...

Creating polyMesh from blockMesh
Creating patches
Creating cells
Creating points with scale (0.1 0.1 0.1)
    Block 0 cell size :
        i : 0.005 .. 0.005
        j : 0.005 .. 0.005
        k : 0.01 .. 0.01

No patch pairs to merge

Writing polyMesh with 0 cellZones
----------------
Mesh Information
----------------
  boundingBox: (0 0 0) (0.1 0.1 0.01)
  nPoints: 882
  nCells: 400
  nFaces: 1640
  nInternalFaces: 760
----------------
Patches
----------------
  patch 0 (start: 760 size: 20) name: movingWall
  patch 1 (start: 780 size: 60) name: fixedWalls
  patch 2 (start: 840 size: 800) name: frontAndBack

End


real	0m1.028s
user	0m0.020s
sys	0m0.296s
/*---------------------------------------------------------------------------*\
| =========                 |                                                 |
| \\      /  F ield         | OpenFOAM: The Open Source CFD Toolbox           |
|  \\    /   O peration     | Version:  2212                                  |
|   \\  /    A nd           | Website:  www.openfoam.com                      |
|    \\/     M anipulation  |                                                 |
\*---------------------------------------------------------------------------*/
Build  : _f8e05934-20230403 OPENFOAM=2212 patch=230110 version=2212
Arch   : "LSB;label=32;scalar=64"
Exec   : icoFoam
Date   : Jun 11 2023
Time   : 14:08:38
Host   : r1i2n30
PID    : 604878
I/O    : uncollated
Case   : /mnt/cases/cavity_nu0.01_U1
nProcs : 1
trapFpe: Floating point exception trapping enabled (FOAM_SIGFPE).
fileModificationChecking : Monitoring run-time modified files using timeStampMaster (fileModificationSkew 5, maxFileModificationPolls 20)
allowSystemOperations : Allowing user-supplied system call operations

// * * * * * * * * * * * * * * * * * * * * * * * * * * * * * * * * * * * * * //
Create time

Create mesh for time = 0


PISO: Operating solver in PISO mode

Reading transportProperties

Reading field p

Reading field U

Reading/calculating face flux field phi


Starting time loop

Time = 0.001

Courant Number mean: 0 max: 0
smoothSolver:  Solving for Ux, Initial residual = 1, Final residual = 9.58305e-06, No Iterations 6
smoothSolver:  Solving for Uy, Initial residual = 0, Final residual = 0, No Iterations 0
DICPCG:  Solving for p, Initial residual = 1, Final residual = 0.026564, No Iterations 23
time step continuity errors : sum local = 1.32003e-05, global = 8.5365e-21, cumulative = 8.5365e-21
DICPCG:  Solving for p, Initial residual = 0.323759, Final residual = 7.82212e-07, No Iterations 34
time step continuity errors : sum local = 7.55775e-10, global = 2.61306e-20, cumulative = 3.46671e-20
ExecutionTime = 0.02 s  ClockTime = 0 s

Time = 0.002

Courant Number mean: 0.00910037 max: 0.0686611
smoothSolver:  Solving for Ux, Initial residual = 0.229991, Final residual = 4.27196e-06, No Iterations 6
smoothSolver:  Solving for Uy, Initial residual = 0.297278, Final residual = 8.7862e-06, No Iterations 6
DICPCG:  Solving for p, Initial residual = 0.176691, Final residual = 0.00660474, No Iterations 22
time step continuity errors : sum local = 5.92648e-06, global = -5.73071e-20, cumulative = -2.26399e-20
DICPCG:  Solving for p, Initial residual = 0.0933952, Final residual = 9.66559e-07, No Iterations 32
time step continuity errors : sum local = 9.15788e-10, global = 7.04758e-21, cumulative = -1.55924e-20
ExecutionTime = 0.02 s  ClockTime = 0 s

Time = 0.003

Courant Number mean: 0.0149226 max: 0.104556
smoothSolver:  Solving for Ux, Initial residual = 0.107937, Final residual = 2.20104e-06, No Iterations 6
smoothSolver:  Solving for Uy, Initial residual = 0.143328, Final residual = 4.59146e-06, No Iterations 6
DICPCG:  Solving for p, Initial residual = 0.0855503, Final residual = 0.00392783, No Iterations 11
time step continuity errors : sum local = 5.58231e-06, global = 3.67268e-20, cumulative = 2.11345e-20
DICPCG:  Solving for p, Initial residual = 0.0463385, Final residual = 5.83961e-07, No Iterations 30
time step continuity errors : sum local = 5.96615e-10, global = -2.31197e-20, cumulative = -1.98523e-21
ExecutionTime = 0.03 s  ClockTime = 0 s

Time = 0.004

Courant Number mean: 0.018842 max: 0.12404
smoothSolver:  Solving for Ux, Initial residual = 0.0645185, Final residual = 7.89886e-06, No Iterations 5
smoothSolver:  Solving for Uy, Initial residual = 0.0880669, Final residual = 2.99924e-06, No Iterations 6
DICPCG:  Solving for p, Initial residual = 0.0547295, Final residual = 0.0017238, No Iterations 11
time step continuity errors : sum local = 1.90634e-06, global = -1.30364e-20, cumulative = -1.50216e-20
DICPCG:  Solving for p, Initial residual = 0.02737, Final residual = 8.52085e-07, No Iterations 29
time step continuity errors : sum local = 9.03416e-10, global = 2.09442e-20, cumulative = 5.92261e-21
ExecutionTime = 0.04 s  ClockTime = 0 s

Time = 0.005

Courant Number mean: 0.0217389 max: 0.135445
smoothSolver:  Solving for Ux, Initial residual = 0.0440722, Final residual = 5.94688e-06, No Iterations 5
smoothSolver:  Solving for Uy, Initial residual = 0.0602357, Final residual = 2.1596e-06, No Iterations 6
DICPCG:  Solving for p, Initial residual = 0.0352671, Final residual = 0.00134858, No Iterations 11
time step continuity errors : sum local = 2.11097e-06, global = -6.04834e-20, cumulative = -5.45608e-20
DICPCG:  Solving for p, Initial residual = 0.0174961, Final residual = 7.88458e-07, No Iterations 29
time step continuity errors : sum local = 8.63585e-10, global = 1.01346e-19, cumulative = 4.67853e-20
ExecutionTime = 0.05 s  ClockTime = 0 s

Time = 0.006

Courant Number mean: 0.024073 max: 0.14265
smoothSolver:  Solving for Ux, Initial residual = 0.0327233, Final residual = 4.72641e-06, No Iterations 5
smoothSolver:  Solving for Uy, Initial residual = 0.0453002, Final residual = 9.15156e-06, No Iterations 5
DICPCG:  Solving for p, Initial residual = 0.0256338, Final residual = 0.000705622, No Iterations 11
time step continuity errors : sum local = 8.87748e-07, global = -1.34318e-19, cumulative = -8.75323e-20
DICPCG:  Solving for p, Initial residual = 0.0121969, Final residual = 6.56098e-07, No Iterations 29
time step continuity errors : sum local = 7.35004e-10, global = 1.84296e-19, cumulative = 9.67636e-20
ExecutionTime = 0.05 s  ClockTime = 0 s

Time = 0.007

Courant Number mean: 0.0259854 max: 0.147536
smoothSolver:  Solving for Ux, Initial residual = 0.0258513, Final residual = 3.97341e-06, No Iterations 5
smoothSolver:  Solving for Uy, Initial residual = 0.0356592, Final residual = 7.39599e-06, No Iterations 5
DICPCG:  Solving for p, Initial residual = 0.0187261, Final residual = 0.000665683, No Iterations 11
time step continuity errors : sum local = 1.05175e-06, global = -7.82514e-20, cumulative = 1.85122e-20
DICPCG:  Solving for p, Initial residual = 0.00908232, Final residual = 7.09401e-07, No Iterations 28
time step continuity errors : sum local = 8.06894e-10, global = 9.52581e-20, cumulative = 1.1377e-19
ExecutionTime = 0.06 s  ClockTime = 0 s

Time = 0.008

Courant Number mean: 0.0275916 max: 0.151057
smoothSolver:  Solving for Ux, Initial residual = 0.020991, Final residual = 3.38942e-06, No Iterations 5
smoothSolver:  Solving for Uy, Initial residual = 0.0293532, Final residual = 6.1967e-06, No Iterations 5
DICPCG:  Solving for p, Initial residual = 0.0147305, Final residual = 0.00043453, No Iterations 11
time step continuity errors : sum local = 5.96998e-07, global = 1.91542e-19, cumulative = 3.05312e-19
DICPCG:  Solving for p, Initial residual = 0.00730703, Final residual = 7.29649e-07, No Iterations 28
time step continuity errors : sum local = 8.4425e-10, global = 6.10294e-20, cumulative = 3.66342e-19
ExecutionTime = 0.06 s  ClockTime = 0 s

Time = 0.009

Courant Number mean: 0.0289567 max: 0.153721
smoothSolver:  Solving for Ux, Initial residual = 0.0175738, Final residual = 2.95376e-06, No Iterations 5
smoothSolver:  Solving for Uy, Initial residual = 0.0247116, Final residual = 5.28899e-06, No Iterations 5
DICPCG:  Solving for p, Initial residual = 0.0119925, Final residual = 0.000414941, No Iterations 11
time step continuity errors : sum local = 6.42608e-07, global = -6.31966e-21, cumulative = 3.60022e-19
DICPCG:  Solving for p, Initial residual = 0.00605616, Final residual = 8.60127e-07, No Iterations 28
time step continuity errors : sum local = 1.0049e-09, global = 5.06069e-20, cumulative = 4.10629e-19
ExecutionTime = 0.07 s  ClockTime = 0 s

Time = 0.01

Courant Number mean: 0.0301458 max: 0.155817
smoothSolver:  Solving for Ux, Initial residual = 0.015055, Final residual = 2.60543e-06, No Iterations 5
smoothSolver:  Solving for Uy, Initial residual = 0.0212802, Final residual = 4.59895e-06, No Iterations 5
DICPCG:  Solving for p, Initial residual = 0.010374, Final residual = 0.000322405, No Iterations 11
time step continuity errors : sum local = 4.61575e-07, global = -5.31707e-20, cumulative = 3.57458e-19
DICPCG:  Solving for p, Initial residual = 0.00519267, Final residual = 7.96789e-07, No Iterations 28
time step continuity errors : sum local = 9.36896e-10, global = 7.88799e-20, cumulative = 4.36338e-19
ExecutionTime = 0.08 s  ClockTime = 0 s

Time = 0.011

Courant Number mean: 0.0311851 max: 0.157515
smoothSolver:  Solving for Ux, Initial residual = 0.0131025, Final residual = 2.33238e-06, No Iterations 5
smoothSolver:  Solving for Uy, Initial residual = 0.0185659, Final residual = 4.04288e-06, No Iterations 5
DICPCG:  Solving for p, Initial residual = 0.00887204, Final residual = 0.000297508, No Iterations 11
time step continuity errors : sum local = 4.51624e-07, global = -1.67967e-19, cumulative = 2.68371e-19
DICPCG:  Solving for p, Initial residual = 0.00450627, Final residual = 7.41707e-07, No Iterations 28
time step continuity errors : sum local = 8.76908e-10, global = 8.1163e-20, cumulative = 3.49534e-19
ExecutionTime = 0.08 s  ClockTime = 0 s

Time = 0.012

Courant Number mean: 0.0321006 max: 0.158922
smoothSolver:  Solving for Ux, Initial residual = 0.0115144, Final residual = 2.10023e-06, No Iterations 5
smoothSolver:  Solving for Uy, Initial residual = 0.016406, Final residual = 3.59277e-06, No Iterations 5
DICPCG:  Solving for p, Initial residual = 0.00782189, Final residual = 0.000248402, No Iterations 11
time step continuity errors : sum local = 3.63609e-07, global = 2.2855e-19, cumulative = 5.78084e-19
DICPCG:  Solving for p, Initial residual = 0.00397491, Final residual = 6.69972e-07, No Iterations 28
time step continuity errors : sum local = 7.95909e-10, global = 3.93738e-20, cumulative = 6.17458e-19
ExecutionTime = 0.09 s  ClockTime = 0 s

Time = 0.013

Courant Number mean: 0.0329364 max: 0.160108
smoothSolver:  Solving for Ux, Initial residual = 0.0101964, Final residual = 1.90427e-06, No Iterations 5
smoothSolver:  Solving for Uy, Initial residual = 0.0146197, Final residual = 3.21625e-06, No Iterations 5
DICPCG:  Solving for p, Initial residual = 0.00691658, Final residual = 0.000225981, No Iterations 11
time step continuity errors : sum local = 3.40328e-07, global = -9.16847e-20, cumulative = 5.25773e-19
DICPCG:  Solving for p, Initial residual = 0.0035343, Final residual = 6.05761e-07, No Iterations 28
time step continuity errors : sum local = 7.22712e-10, global = -5.88291e-20, cumulative = 4.66944e-19
ExecutionTime = 0.1 s  ClockTime = 0 s

Time = 0.014

Courant Number mean: 0.0337104 max: 0.161123
smoothSolver:  Solving for Ux, Initial residual = 0.00910582, Final residual = 9.54245e-06, No Iterations 4
smoothSolver:  Solving for Uy, Initial residual = 0.0131314, Final residual = 2.8993e-06, No Iterations 5
DICPCG:  Solving for p, Initial residual = 0.00618283, Final residual = 0.000194936, No Iterations 11
time step continuity errors : sum local = 2.88396e-07, global = 9.85668e-20, cumulative = 5.65511e-19
DICPCG:  Solving for p, Initial residual = 0.00315927, Final residual = 5.47559e-07, No Iterations 28
time step continuity errors : sum local = 6.55783e-10, global = 1.5862e-19, cumulative = 7.24131e-19
ExecutionTime = 0.1 s  ClockTime = 0 s

Time = 0.015

Courant Number mean: 0.0344176 max: 0.162
smoothSolver:  Solving for Ux, Initial residual = 0.00821078, Final residual = 8.70884e-06, No Iterations 4
smoothSolver:  Solving for Uy, Initial residual = 0.0118656, Final residual = 2.62769e-06, No Iterations 5
DICPCG:  Solving for p, Initial residual = 0.00554259, Final residual = 0.000176864, No Iterations 11
time step continuity errors : sum local = 2.66067e-07, global = -1.50332e-19, cumulative = 5.738e-19
DICPCG:  Solving for p, Initial residual = 0.00284369, Final residual = 9.78505e-07, No Iterations 27
time step continuity errors : sum local = 1.1837e-09, global = -2.05075e-19, cumulative = 3.68725e-19
ExecutionTime = 0.11 s  ClockTime = 0 s

Time = 0.016

Courant Number mean: 0.0350691 max: 0.162766
smoothSolver:  Solving for Ux, Initial residual = 0.00744691, Final residual = 7.97238e-06, No Iterations 4
smoothSolver:  Solving for Uy, Initial residual = 0.0107797, Final residual = 2.39303e-06, No Iterations 5
DICPCG:  Solving for p, Initial residual = 0.00501848, Final residual = 0.000156452, No Iterations 11
time step continuity errors : sum local = 2.33843e-07, global = 6.38583e-21, cumulative = 3.75111e-19
DICPCG:  Solving for p, Initial residual = 0.00257487, Final residual = 8.60913e-07, No Iterations 27
time step continuity errors : sum local = 1.04487e-09, global = 1.30099e-19, cumulative = 5.0521e-19
ExecutionTime = 0.11 s  ClockTime = 0 s

Time = 0.017

Courant Number mean: 0.0356683 max: 0.16344
smoothSolver:  Solving for Ux, Initial residual = 0.00678316, Final residual = 7.32666e-06, No Iterations 4
smoothSolver:  Solving for Uy, Initial residual = 0.00983595, Final residual = 2.18798e-06, No Iterations 5
DICPCG:  Solving for p, Initial residual = 0.00455546, Final residual = 0.000141595, No Iterations 11
time step continuity errors : sum local = 2.13574e-07, global = -1.02306e-19, cumulative = 4.02904e-19
DICPCG:  Solving for p, Initial residual = 0.00234343, Final residual = 7.47913e-07, No Iterations 27
time step continuity errors : sum local = 9.10392e-10, global = 2.33017e-19, cumulative = 6.35921e-19
ExecutionTime = 0.12 s  ClockTime = 0 s

Time = 0.018

Courant Number mean: 0.0362188 max: 0.164036
smoothSolver:  Solving for Ux, Initial residual = 0.00619467, Final residual = 6.75695e-06, No Iterations 4
smoothSolver:  Solving for Uy, Initial residual = 0.00901029, Final residual = 2.00777e-06, No Iterations 5
DICPCG:  Solving for p, Initial residual = 0.00416498, Final residual = 0.000127192, No Iterations 11
time step continuity errors : sum local = 1.91592e-07, global = -4.04326e-20, cumulative = 5.95488e-19
DICPCG:  Solving for p, Initial residual = 0.00214453, Final residual = 6.57164e-07, No Iterations 27
time step continuity errors : sum local = 8.02048e-10, global = -7.80197e-20, cumulative = 5.17469e-19
ExecutionTime = 0.13 s  ClockTime = 0 s

Time = 0.019

Courant Number mean: 0.0367277 max: 0.164567
smoothSolver:  Solving for Ux, Initial residual = 0.00567089, Final residual = 6.25016e-06, No Iterations 4
smoothSolver:  Solving for Uy, Initial residual = 0.00828146, Final residual = 9.9534e-06, No Iterations 4
DICPCG:  Solving for p, Initial residual = 0.0038114, Final residual = 0.000115991, No Iterations 11
time step continuity errors : sum local = 1.76082e-07, global = 3.83814e-20, cumulative = 5.5585e-19
DICPCG:  Solving for p, Initial residual = 0.00196285, Final residual = 5.79752e-07, No Iterations 27
time step continuity errors : sum local = 7.09251e-10, global = -7.84167e-20, cumulative = 4.77433e-19
ExecutionTime = 0.14 s  ClockTime = 0 s

Time = 0.02

Courant Number mean: 0.0371974 max: 0.165042
smoothSolver:  Solving for Ux, Initial residual = 0.00520118, Final residual = 5.79438e-06, No Iterations 4
smoothSolver:  Solving for Uy, Initial residual = 0.00763499, Final residual = 9.18529e-06, No Iterations 4
DICPCG:  Solving for p, Initial residual = 0.00350582, Final residual = 0.000174972, No Iterations 10
time step continuity errors : sum local = 2.42824e-07, global = -1.2722e-19, cumulative = 3.50213e-19
DICPCG:  Solving for p, Initial residual = 0.0018199, Final residual = 8.27814e-07, No Iterations 26
time step continuity errors : sum local = 1.01496e-09, global = 1.51506e-19, cumulative = 5.01719e-19
ExecutionTime = 0.14 s  ClockTime = 0 s

Time = 0.021

Courant Number mean: 0.0376339 max: 0.165468
smoothSolver:  Solving for Ux, Initial residual = 0.00478034, Final residual = 5.37943e-06, No Iterations 4
smoothSolver:  Solving for Uy, Initial residual = 0.00706071, Final residual = 8.50154e-06, No Iterations 4
DICPCG:  Solving for p, Initial residual = 0.00322695, Final residual = 0.000156747, No Iterations 10
time step continuity errors : sum local = 2.17375e-07, global = -1.03116e-19, cumulative = 3.98603e-19
DICPCG:  Solving for p, Initial residual = 0.00167782, Final residual = 7.06468e-07, No Iterations 26
time step continuity errors : sum local = 8.67573e-10, global = 9.07417e-20, cumulative = 4.89345e-19
ExecutionTime = 0.14 s  ClockTime = 0 s

Time = 0.022

Courant Number mean: 0.0380379 max: 0.165853
smoothSolver:  Solving for Ux, Initial residual = 0.00442291, Final residual = 5.0045e-06, No Iterations 4
smoothSolver:  Solving for Uy, Initial residual = 0.00654108, Final residual = 7.88167e-06, No Iterations 4
DICPCG:  Solving for p, Initial residual = 0.00298209, Final residual = 0.000139878, No Iterations 10
time step continuity errors : sum local = 1.95978e-07, global = 4.82081e-20, cumulative = 5.37553e-19
DICPCG:  Solving for p, Initial residual = 0.00154417, Final residual = 6.25236e-07, No Iterations 26
time step continuity errors : sum local = 7.69068e-10, global = 4.04491e-20, cumulative = 5.78002e-19
ExecutionTime = 0.15 s  ClockTime = 0 s

Time = 0.023

Courant Number mean: 0.0384124 max: 0.166201
smoothSolver:  Solving for Ux, Initial residual = 0.00410485, Final residual = 4.66278e-06, No Iterations 4
smoothSolver:  Solving for Uy, Initial residual = 0.00607293, Final residual = 7.32212e-06, No Iterations 4
DICPCG:  Solving for p, Initial residual = 0.00275878, Final residual = 0.000135985, No Iterations 9
time step continuity errors : sum local = 1.87558e-07, global = 1.30082e-19, cumulative = 7.08084e-19
DICPCG:  Solving for p, Initial residual = 0.0014211, Final residual = 5.63211e-07, No Iterations 26
time step continuity errors : sum local = 6.93381e-10, global = -5.0276e-20, cumulative = 6.57808e-19
ExecutionTime = 0.16 s  ClockTime = 0 s

Time = 0.024

Courant Number mean: 0.0387613 max: 0.166516
smoothSolver:  Solving for Ux, Initial residual = 0.00381483, Final residual = 4.3489e-06, No Iterations 4
smoothSolver:  Solving for Uy, Initial residual = 0.00565113, Final residual = 6.8173e-06, No Iterations 4
DICPCG:  Solving for p, Initial residual = 0.00254848, Final residual = 0.000122663, No Iterations 9
time step continuity errors : sum local = 1.69466e-07, global = -9.00634e-20, cumulative = 5.67745e-19
DICPCG:  Solving for p, Initial residual = 0.00131959, Final residual = 4.86632e-07, No Iterations 26
time step continuity errors : sum local = 5.99666e-10, global = 9.71772e-20, cumulative = 6.64922e-19
ExecutionTime = 0.16 s  ClockTime = 1 s

Time = 0.025

Courant Number mean: 0.0390857 max: 0.166803
smoothSolver:  Solving for Ux, Initial residual = 0.00355129, Final residual = 4.06311e-06, No Iterations 4
smoothSolver:  Solving for Uy, Initial residual = 0.00526524, Final residual = 6.35466e-06, No Iterations 4
DICPCG:  Solving for p, Initial residual = 0.00236353, Final residual = 0.000108197, No Iterations 9
time step continuity errors : sum local = 1.50818e-07, global = 7.33047e-20, cumulative = 7.38227e-19
DICPCG:  Solving for p, Initial residual = 0.00122557, Final residual = 4.29743e-07, No Iterations 26
time step continuity errors : sum local = 5.30228e-10, global = -2.15646e-19, cumulative = 5.22581e-19
ExecutionTime = 0.17 s  ClockTime = 1 s

Time = 0.026

Courant Number mean: 0.039388 max: 0.167065
smoothSolver:  Solving for Ux, Initial residual = 0.00330975, Final residual = 3.80116e-06, No Iterations 4
smoothSolver:  Solving for Uy, Initial residual = 0.00491333, Final residual = 5.93225e-06, No Iterations 4
DICPCG:  Solving for p, Initial residual = 0.00219494, Final residual = 9.57177e-05, No Iterations 9
time step continuity errors : sum local = 1.34501e-07, global = -1.56842e-19, cumulative = 3.65739e-19
DICPCG:  Solving for p, Initial residual = 0.00114, Final residual = 3.80088e-07, No Iterations 26
time step continuity errors : sum local = 4.6949e-10, global = -7.24031e-20, cumulative = 2.93336e-19
ExecutionTime = 0.17 s  ClockTime = 1 s

Time = 0.027

Courant Number mean: 0.039672 max: 0.167304
smoothSolver:  Solving for Ux, Initial residual = 0.00308766, Final residual = 3.56068e-06, No Iterations 4
smoothSolver:  Solving for Uy, Initial residual = 0.00459137, Final residual = 5.54533e-06, No Iterations 4
DICPCG:  Solving for p, Initial residual = 0.00205132, Final residual = 8.4465e-05, No Iterations 9
time step continuity errors : sum local = 1.19802e-07, global = -1.38751e-19, cumulative = 1.54585e-19
DICPCG:  Solving for p, Initial residual = 0.0010629, Final residual = 9.70434e-07, No Iterations 25
time step continuity errors : sum local = 1.19349e-09, global = 5.69183e-20, cumulative = 2.11503e-19
ExecutionTime = 0.17 s  ClockTime = 1 s

Time = 0.028

Courant Number mean: 0.0399377 max: 0.167523
smoothSolver:  Solving for Ux, Initial residual = 0.00288277, Final residual = 3.33903e-06, No Iterations 4
smoothSolver:  Solving for Uy, Initial residual = 0.00429609, Final residual = 5.19011e-06, No Iterations 4
DICPCG:  Solving for p, Initial residual = 0.00190981, Final residual = 7.51225e-05, No Iterations 9
time step continuity errors : sum local = 1.07461e-07, global = -2.24826e-20, cumulative = 1.8902e-19
DICPCG:  Solving for p, Initial residual = 0.000990169, Final residual = 8.84895e-07, No Iterations 25
time step continuity errors : sum local = 1.0894e-09, global = 2.85915e-19, cumulative = 4.74935e-19
ExecutionTime = 0.18 s  ClockTime = 1 s

Time = 0.029

Courant Number mean: 0.0401862 max: 0.167724
smoothSolver:  Solving for Ux, Initial residual = 0.00269353, Final residual = 3.13446e-06, No Iterations 4
smoothSolver:  Solving for Uy, Initial residual = 0.00402444, Final residual = 4.86307e-06, No Iterations 4
DICPCG:  Solving for p, Initial residual = 0.00178257, Final residual = 6.69303e-05, No Iterations 9
time step continuity errors : sum local = 9.65701e-08, global = -6.64888e-20, cumulative = 4.08447e-19
DICPCG:  Solving for p, Initial residual = 0.000924489, Final residual = 8.12596e-07, No Iterations 25
time step continuity errors : sum local = 1.00129e-09, global = -5.8399e-21, cumulative = 4.02607e-19
ExecutionTime = 0.18 s  ClockTime = 1 s

Time = 0.03

Courant Number mean: 0.0404188 max: 0.167909
smoothSolver:  Solving for Ux, Initial residual = 0.00251845, Final residual = 2.94483e-06, No Iterations 4
smoothSolver:  Solving for Uy, Initial residual = 0.00377397, Final residual = 4.56135e-06, No Iterations 4
DICPCG:  Solving for p, Initial residual = 0.0016663, Final residual = 5.9773e-05, No Iterations 9
time step continuity errors : sum local = 8.69882e-08, global = 4.37e-20, cumulative = 4.46307e-19
DICPCG:  Solving for p, Initial residual = 0.000864209, Final residual = 7.5036e-07, No Iterations 25
time step continuity errors : sum local = 9.25327e-10, global = -5.04746e-20, cumulative = 3.95832e-19
ExecutionTime = 0.19 s  ClockTime = 1 s

Time = 0.031

Courant Number mean: 0.0406367 max: 0.168079
smoothSolver:  Solving for Ux, Initial residual = 0.00235715, Final residual = 2.76877e-06, No Iterations 4
smoothSolver:  Solving for Uy, Initial residual = 0.00354253, Final residual = 4.28241e-06, No Iterations 4
DICPCG:  Solving for p, Initial residual = 0.00156011, Final residual = 5.35611e-05, No Iterations 9
time step continuity errors : sum local = 7.8601e-08, global = -7.66217e-20, cumulative = 3.1921e-19
DICPCG:  Solving for p, Initial residual = 0.000809071, Final residual = 6.9698e-07, No Iterations 25
time step continuity errors : sum local = 8.60086e-10, global = 5.52722e-20, cumulative = 3.74483e-19
ExecutionTime = 0.2 s  ClockTime = 1 s

Time = 0.032

Courant Number mean: 0.0408411 max: 0.168236
smoothSolver:  Solving for Ux, Initial residual = 0.00221187, Final residual = 2.60527e-06, No Iterations 4
smoothSolver:  Solving for Uy, Initial residual = 0.00332828, Final residual = 4.02403e-06, No Iterations 4
DICPCG:  Solving for p, Initial residual = 0.00146233, Final residual = 4.81757e-05, No Iterations 9
time step continuity errors : sum local = 7.12638e-08, global = -5.52557e-21, cumulative = 3.68957e-19
DICPCG:  Solving for p, Initial residual = 0.000758244, Final residual = 6.51924e-07, No Iterations 25
time step continuity errors : sum local = 8.04956e-10, global = -8.41904e-20, cumulative = 2.84767e-19
ExecutionTime = 0.2 s  ClockTime = 1 s

Time = 0.033

Courant Number mean: 0.0410331 max: 0.16838
smoothSolver:  Solving for Ux, Initial residual = 0.00207921, Final residual = 2.45289e-06, No Iterations 4
smoothSolver:  Solving for Uy, Initial residual = 0.00312955, Final residual = 3.78428e-06, No Iterations 4
DICPCG:  Solving for p, Initial residual = 0.00137182, Final residual = 4.34921e-05, No Iterations 9
time step continuity errors : sum local = 6.48217e-08, global = 8.7251e-20, cumulative = 3.72018e-19
DICPCG:  Solving for p, Initial residual = 0.000711062, Final residual = 6.13302e-07, No Iterations 25
time step continuity errors : sum local = 7.57643e-10, global = -3.52875e-20, cumulative = 3.3673e-19
ExecutionTime = 0.2 s  ClockTime = 1 s

Time = 0.034

Courant Number mean: 0.0412134 max: 0.168514
smoothSolver:  Solving for Ux, Initial residual = 0.00195632, Final residual = 2.31099e-06, No Iterations 4
smoothSolver:  Solving for Uy, Initial residual = 0.00294493, Final residual = 3.56144e-06, No Iterations 4
DICPCG:  Solving for p, Initial residual = 0.00128753, Final residual = 3.94003e-05, No Iterations 9
time step continuity errors : sum local = 5.91401e-08, global = 1.16136e-20, cumulative = 3.48344e-19
DICPCG:  Solving for p, Initial residual = 0.000667304, Final residual = 5.80418e-07, No Iterations 25
time step continuity errors : sum local = 7.17326e-10, global = -1.73112e-19, cumulative = 1.75231e-19
ExecutionTime = 0.21 s  ClockTime = 1 s

Time = 0.035

Courant Number mean: 0.0413829 max: 0.168638
smoothSolver:  Solving for Ux, Initial residual = 0.00184199, Final residual = 2.17846e-06, No Iterations 4
smoothSolver:  Solving for Uy, Initial residual = 0.00277317, Final residual = 3.354e-06, No Iterations 4
DICPCG:  Solving for p, Initial residual = 0.00121655, Final residual = 3.62051e-05, No Iterations 9
time step continuity errors : sum local = 5.46093e-08, global = 2.82267e-19, cumulative = 4.57498e-19
DICPCG:  Solving for p, Initial residual = 0.000627832, Final residual = 5.48594e-07, No Iterations 25
time step continuity errors : sum local = 6.78282e-10, global = 4.93e-20, cumulative = 5.06798e-19
ExecutionTime = 0.21 s  ClockTime = 1 s

Time = 0.036

Courant Number mean: 0.0415432 max: 0.168752
smoothSolver:  Solving for Ux, Initial residual = 0.0017353, Final residual = 2.05452e-06, No Iterations 4
smoothSolver:  Solving for Uy, Initial residual = 0.00261307, Final residual = 3.16059e-06, No Iterations 4
DICPCG:  Solving for p, Initial residual = 0.00114101, Final residual = 3.23064e-05, No Iterations 9
time step continuity errors : sum local = 4.91535e-08, global = 9.76073e-22, cumulative = 5.07774e-19
DICPCG:  Solving for p, Initial residual = 0.000587681, Final residual = 5.35976e-07, No Iterations 25
time step continuity errors : sum local = 6.62764e-10, global = -2.1194e-19, cumulative = 2.95834e-19
ExecutionTime = 0.22 s  ClockTime = 1 s

Time = 0.037

Courant Number mean: 0.0416943 max: 0.168859
smoothSolver:  Solving for Ux, Initial residual = 0.00163539, Final residual = 1.93857e-06, No Iterations 4
smoothSolver:  Solving for Uy, Initial residual = 0.0024638, Final residual = 2.98017e-06, No Iterations 4
DICPCG:  Solving for p, Initial residual = 0.00106901, Final residual = 2.97336e-05, No Iterations 9
time step continuity errors : sum local = 4.55371e-08, global = 1.85454e-20, cumulative = 3.1438e-19
DICPCG:  Solving for p, Initial residual = 0.000553961, Final residual = 9.90637e-07, No Iterations 24
time step continuity errors : sum local = 1.22976e-09, global = -8.41739e-20, cumulative = 2.30206e-19
ExecutionTime = 0.23 s  ClockTime = 1 s

Time = 0.038

Courant Number mean: 0.0418366 max: 0.168957
smoothSolver:  Solving for Ux, Initial residual = 0.00154188, Final residual = 9.86165e-06, No Iterations 3
smoothSolver:  Solving for Uy, Initial residual = 0.00232431, Final residual = 2.81155e-06, No Iterations 4
DICPCG:  Solving for p, Initial residual = 0.00100117, Final residual = 3.08082e-05, No Iterations 9
time step continuity errors : sum local = 4.45136e-08, global = -1.86628e-19, cumulative = 4.35772e-20
DICPCG:  Solving for p, Initial residual = 0.000517852, Final residual = 9.61245e-07, No Iterations 24
time step continuity errors : sum local = 1.19449e-09, global = -7.77715e-20, cumulative = -3.41943e-20
ExecutionTime = 0.23 s  ClockTime = 1 s

Time = 0.039

Courant Number mean: 0.0419706 max: 0.169049
smoothSolver:  Solving for Ux, Initial residual = 0.00145439, Final residual = 9.311e-06, No Iterations 3
smoothSolver:  Solving for Uy, Initial residual = 0.00219378, Final residual = 2.65378e-06, No Iterations 4
DICPCG:  Solving for p, Initial residual = 0.00094171, Final residual = 2.84437e-05, No Iterations 9
time step continuity errors : sum local = 4.18367e-08, global = 1.14316e-20, cumulative = -2.27627e-20
DICPCG:  Solving for p, Initial residual = 0.000487287, Final residual = 9.11389e-07, No Iterations 24
time step continuity errors : sum local = 1.13298e-09, global = 9.36038e-20, cumulative = 7.08411e-20
ExecutionTime = 0.23 s  ClockTime = 1 s

Time = 0.04

Courant Number mean: 0.042097 max: 0.169134
smoothSolver:  Solving for Ux, Initial residual = 0.00137216, Final residual = 8.7935e-06, No Iterations 3
smoothSolver:  Solving for Uy, Initial residual = 0.0020718, Final residual = 2.5062e-06, No Iterations 4
DICPCG:  Solving for p, Initial residual = 0.000887466, Final residual = 2.60254e-05, No Iterations 9
time step continuity errors : sum local = 3.80318e-08, global = -8.1196e-20, cumulative = -1.0355e-20
DICPCG:  Solving for p, Initial residual = 0.000458728, Final residual = 8.61566e-07, No Iterations 24
time step continuity errors : sum local = 1.07128e-09, global = -1.86331e-19, cumulative = -1.96686e-19
ExecutionTime = 0.24 s  ClockTime = 1 s

Time = 0.041

Courant Number mean: 0.0422162 max: 0.169213
smoothSolver:  Solving for Ux, Initial residual = 0.00129505, Final residual = 8.3081e-06, No Iterations 3
smoothSolver:  Solving for Uy, Initial residual = 0.00195725, Final residual = 2.36766e-06, No Iterations 4
DICPCG:  Solving for p, Initial residual = 0.000835935, Final residual = 2.39458e-05, No Iterations 9
time step continuity errors : sum local = 3.5345e-08, global = 9.53077e-20, cumulative = -1.01378e-19
DICPCG:  Solving for p, Initial residual = 0.000431986, Final residual = 8.17877e-07, No Iterations 24
time step continuity errors : sum local = 1.01713e-09, global = -8.83098e-20, cumulative = -1.89688e-19
ExecutionTime = 0.24 s  ClockTime = 1 s

Time = 0.042

Courant Number mean: 0.042329 max: 0.169287
smoothSolver:  Solving for Ux, Initial residual = 0.00122253, Final residual = 7.85161e-06, No Iterations 3
smoothSolver:  Solving for Uy, Initial residual = 0.00184991, Final residual = 2.23778e-06, No Iterations 4
DICPCG:  Solving for p, Initial residual = 0.000788268, Final residual = 2.20541e-05, No Iterations 9
time step continuity errors : sum local = 3.25054e-08, global = 7.33389e-20, cumulative = -1.16349e-19
DICPCG:  Solving for p, Initial residual = 0.000406992, Final residual = 7.78797e-07, No Iterations 24
time step continuity errors : sum local = 9.68694e-10, global = 2.94642e-20, cumulative = -8.68847e-20
ExecutionTime = 0.24 s  ClockTime = 1 s

Time = 0.043

Courant Number mean: 0.0424366 max: 0.169356
smoothSolver:  Solving for Ux, Initial residual = 0.00115441, Final residual = 7.42331e-06, No Iterations 3
smoothSolver:  Solving for Uy, Initial residual = 0.00174901, Final residual = 2.1157e-06, No Iterations 4
DICPCG:  Solving for p, Initial residual = 0.000745059, Final residual = 2.01959e-05, No Iterations 9
time step continuity errors : sum local = 2.99346e-08, global = 4.08958e-20, cumulative = -4.59889e-20
DICPCG:  Solving for p, Initial residual = 0.000383651, Final residual = 7.33582e-07, No Iterations 24
time step continuity errors : sum local = 9.12587e-10, global = 1.05234e-19, cumulative = 5.9245e-20
ExecutionTime = 0.25 s  ClockTime = 1 s

Time = 0.044

Courant Number mean: 0.0425388 max: 0.16942
smoothSolver:  Solving for Ux, Initial residual = 0.00109037, Final residual = 7.02066e-06, No Iterations 3
smoothSolver:  Solving for Uy, Initial residual = 0.00165432, Final residual = 2.00112e-06, No Iterations 4
DICPCG:  Solving for p, Initial residual = 0.000701475, Final residual = 1.86868e-05, No Iterations 9
time step continuity errors : sum local = 2.77473e-08, global = 1.62789e-20, cumulative = 7.55239e-20
DICPCG:  Solving for p, Initial residual = 0.000361875, Final residual = 7.01112e-07, No Iterations 24
time step continuity errors : sum local = 8.72332e-10, global = -4.08958e-20, cumulative = 3.46281e-20
ExecutionTime = 0.26 s  ClockTime = 1 s

Time = 0.045

Courant Number mean: 0.0426359 max: 0.16948
smoothSolver:  Solving for Ux, Initial residual = 0.00103025, Final residual = 6.64238e-06, No Iterations 3
smoothSolver:  Solving for Uy, Initial residual = 0.00156523, Final residual = 1.8933e-06, No Iterations 4
DICPCG:  Solving for p, Initial residual = 0.000662239, Final residual = 1.72662e-05, No Iterations 9
time step continuity errors : sum local = 2.5693e-08, global = 1.08179e-19, cumulative = 1.42807e-19
DICPCG:  Solving for p, Initial residual = 0.000341481, Final residual = 6.68199e-07, No Iterations 24
time step continuity errors : sum local = 8.31496e-10, global = 3.94896e-20, cumulative = 1.82296e-19
ExecutionTime = 0.26 s  ClockTime = 1 s

Time = 0.046

Courant Number mean: 0.0427276 max: 0.169536
smoothSolver:  Solving for Ux, Initial residual = 0.000973843, Final residual = 6.28659e-06, No Iterations 3
smoothSolver:  Solving for Uy, Initial residual = 0.00148137, Final residual = 9.62392e-06, No Iterations 3
DICPCG:  Solving for p, Initial residual = 0.000622034, Final residual = 1.43258e-05, No Iterations 9
time step continuity errors : sum local = 2.28539e-08, global = -6.02694e-20, cumulative = 1.22027e-19
DICPCG:  Solving for p, Initial residual = 0.000319283, Final residual = 6.10542e-07, No Iterations 24
time step continuity errors : sum local = 7.59332e-10, global = 2.3128e-20, cumulative = 1.45155e-19
ExecutionTime = 0.26 s  ClockTime = 1 s

Time = 0.047

Courant Number mean: 0.0428148 max: 0.169589
smoothSolver:  Solving for Ux, Initial residual = 0.000921032, Final residual = 5.95189e-06, No Iterations 3
smoothSolver:  Solving for Uy, Initial residual = 0.0014025, Final residual = 9.11116e-06, No Iterations 3
DICPCG:  Solving for p, Initial residual = 0.000588927, Final residual = 1.30685e-05, No Iterations 9
time step continuity errors : sum local = 2.06316e-08, global = -4.59416e-20, cumulative = 9.92134e-20
DICPCG:  Solving for p, Initial residual = 0.000301986, Final residual = 5.83202e-07, No Iterations 24
time step continuity errors : sum local = 7.25368e-10, global = -3.43611e-20, cumulative = 6.48523e-20
ExecutionTime = 0.26 s  ClockTime = 1 s

Time = 0.048

Courant Number mean: 0.0428977 max: 0.169638
smoothSolver:  Solving for Ux, Initial residual = 0.00087167, Final residual = 5.63689e-06, No Iterations 3
smoothSolver:  Solving for Uy, Initial residual = 0.0013281, Final residual = 8.62769e-06, No Iterations 3
DICPCG:  Solving for p, Initial residual = 0.000556493, Final residual = 1.22123e-05, No Iterations 9
time step continuity errors : sum local = 1.95246e-08, global = 5.83493e-20, cumulative = 1.23202e-19
DICPCG:  Solving for p, Initial residual = 0.000285416, Final residual = 5.58759e-07, No Iterations 24
time step continuity errors : sum local = 6.95047e-10, global = 4.46678e-21, cumulative = 1.27668e-19
ExecutionTime = 0.28 s  ClockTime = 1 s

Time = 0.049

Courant Number mean: 0.0429761 max: 0.169683
smoothSolver:  Solving for Ux, Initial residual = 0.000825373, Final residual = 5.3397e-06, No Iterations 3
smoothSolver:  Solving for Uy, Initial residual = 0.00125808, Final residual = 8.17254e-06, No Iterations 3
DICPCG:  Solving for p, Initial residual = 0.000526353, Final residual = 1.13573e-05, No Iterations 9
time step continuity errors : sum local = 1.80652e-08, global = 5.88456e-20, cumulative = 1.86514e-19
DICPCG:  Solving for p, Initial residual = 0.000269907, Final residual = 5.35605e-07, No Iterations 24
time step continuity errors : sum local = 6.66382e-10, global = -4.4585e-20, cumulative = 1.41929e-19
ExecutionTime = 0.28 s  ClockTime = 1 s

Time = 0.05

Courant Number mean: 0.0430503 max: 0.169726
smoothSolver:  Solving for Ux, Initial residual = 0.000781952, Final residual = 5.05989e-06, No Iterations 3
smoothSolver:  Solving for Uy, Initial residual = 0.00119193, Final residual = 7.7426e-06, No Iterations 3
DICPCG:  Solving for p, Initial residual = 0.00049771, Final residual = 2.47951e-05, No Iterations 8
time step continuity errors : sum local = 3.45664e-08, global = -8.99476e-20, cumulative = 5.19813e-20
DICPCG:  Solving for p, Initial residual = 0.000255193, Final residual = 9.71046e-07, No Iterations 23
time step continuity errors : sum local = 1.21148e-09, global = -9.49769e-20, cumulative = -4.29955e-20
ExecutionTime = 0.28 s  ClockTime = 1 s

Time = 0.051

Courant Number mean: 0.0431205 max: 0.169767
smoothSolver:  Solving for Ux, Initial residual = 0.000741001, Final residual = 4.79561e-06, No Iterations 3
smoothSolver:  Solving for Uy, Initial residual = 0.00112952, Final residual = 7.33682e-06, No Iterations 3
DICPCG:  Solving for p, Initial residual = 0.000469704, Final residual = 2.32473e-05, No Iterations 8
time step continuity errors : sum local = 3.23371e-08, global = 5.58512e-20, cumulative = 1.28557e-20
DICPCG:  Solving for p, Initial residual = 0.000240793, Final residual = 9.04278e-07, No Iterations 23
time step continuity errors : sum local = 1.12826e-09, global = 6.06489e-20, cumulative = 7.35046e-20
ExecutionTime = 0.28 s  ClockTime = 1 s

Time = 0.052

Courant Number mean: 0.0431869 max: 0.169804
smoothSolver:  Solving for Ux, Initial residual = 0.000702399, Final residual = 4.54632e-06, No Iterations 3
smoothSolver:  Solving for Uy, Initial residual = 0.00107056, Final residual = 6.95362e-06, No Iterations 3
DICPCG:  Solving for p, Initial residual = 0.000444243, Final residual = 2.17645e-05, No Iterations 8
time step continuity errors : sum local = 3.0312e-08, global = -2.88951e-19, cumulative = -2.15446e-19
DICPCG:  Solving for p, Initial residual = 0.000227756, Final residual = 8.54753e-07, No Iterations 23
time step continuity errors : sum local = 1.0668e-09, global = -6.56451e-20, cumulative = -2.81091e-19
ExecutionTime = 0.3 s  ClockTime = 1 s

Time = 0.053

Courant Number mean: 0.0432498 max: 0.16984
smoothSolver:  Solving for Ux, Initial residual = 0.000665944, Final residual = 4.31083e-06, No Iterations 3
smoothSolver:  Solving for Uy, Initial residual = 0.00101489, Final residual = 6.5917e-06, No Iterations 3
DICPCG:  Solving for p, Initial residual = 0.000420379, Final residual = 2.03799e-05, No Iterations 8
time step continuity errors : sum local = 2.83708e-08, global = -9.42986e-22, cumulative = -2.82034e-19
DICPCG:  Solving for p, Initial residual = 0.000215534, Final residual = 8.06256e-07, No Iterations 23
time step continuity errors : sum local = 1.00656e-09, global = -7.55878e-20, cumulative = -3.57622e-19
ExecutionTime = 0.3 s  ClockTime = 1 s

Time = 0.054

Courant Number mean: 0.0433094 max: 0.169873
smoothSolver:  Solving for Ux, Initial residual = 0.000631462, Final residual = 4.08834e-06, No Iterations 3
smoothSolver:  Solving for Uy, Initial residual = 0.000962266, Final residual = 6.24963e-06, No Iterations 3
DICPCG:  Solving for p, Initial residual = 0.000397883, Final residual = 1.91045e-05, No Iterations 8
time step continuity errors : sum local = 2.6609e-08, global = 7.24776e-20, cumulative = -2.85144e-19
DICPCG:  Solving for p, Initial residual = 0.000203993, Final residual = 7.60793e-07, No Iterations 23
time step continuity errors : sum local = 9.50074e-10, global = -1.62624e-19, cumulative = -4.47768e-19
ExecutionTime = 0.3 s  ClockTime = 1 s

Time = 0.055

Courant Number mean: 0.0433658 max: 0.169904
smoothSolver:  Solving for Ux, Initial residual = 0.000598868, Final residual = 3.87785e-06, No Iterations 3
smoothSolver:  Solving for Uy, Initial residual = 0.000912517, Final residual = 5.92623e-06, No Iterations 3
DICPCG:  Solving for p, Initial residual = 0.000381384, Final residual = 1.80776e-05, No Iterations 8
time step continuity errors : sum local = 2.51576e-08, global = -2.27309e-20, cumulative = -4.70499e-19
DICPCG:  Solving for p, Initial residual = 0.000193024, Final residual = 7.17448e-07, No Iterations 23
time step continuity errors : sum local = 8.96224e-10, global = 3.76863e-19, cumulative = -9.36355e-20
ExecutionTime = 0.3 s  ClockTime = 1 s

Time = 0.056

Courant Number mean: 0.0434197 max: 0.169933
smoothSolver:  Solving for Ux, Initial residual = 0.00056801, Final residual = 3.67878e-06, No Iterations 3
smoothSolver:  Solving for Uy, Initial residual = 0.000865425, Final residual = 5.62008e-06, No Iterations 3
DICPCG:  Solving for p, Initial residual = 0.000361546, Final residual = 1.67453e-05, No Iterations 8
time step continuity errors : sum local = 2.32965e-08, global = -1.52714e-19, cumulative = -2.4635e-19
DICPCG:  Solving for p, Initial residual = 0.000183281, Final residual = 6.78969e-07, No Iterations 23
time step continuity errors : sum local = 8.48418e-10, global = 9.12049e-20, cumulative = -1.55145e-19
ExecutionTime = 0.31 s  ClockTime = 1 s

Time = 0.057

Courant Number mean: 0.0434709 max: 0.169961
smoothSolver:  Solving for Ux, Initial residual = 0.000538781, Final residual = 3.49008e-06, No Iterations 3
smoothSolver:  Solving for Uy, Initial residual = 0.000820967, Final residual = 5.33119e-06, No Iterations 3
DICPCG:  Solving for p, Initial residual = 0.000337604, Final residual = 1.5662e-05, No Iterations 8
time step continuity errors : sum local = 2.18532e-08, global = -7.32716e-20, cumulative = -2.28416e-19
DICPCG:  Solving for p, Initial residual = 0.000173059, Final residual = 6.39986e-07, No Iterations 23
time step continuity errors : sum local = 7.99892e-10, global = 1.50977e-19, cumulative = -7.74394e-20
ExecutionTime = 0.31 s  ClockTime = 1 s

Time = 0.058

Courant Number mean: 0.0435194 max: 0.169987
smoothSolver:  Solving for Ux, Initial residual = 0.000511088, Final residual = 3.31132e-06, No Iterations 3
smoothSolver:  Solving for Uy, Initial residual = 0.000778878, Final residual = 5.0576e-06, No Iterations 3
DICPCG:  Solving for p, Initial residual = 0.00031976, Final residual = 1.46886e-05, No Iterations 8
time step continuity errors : sum local = 2.04571e-08, global = 2.28649e-19, cumulative = 1.5121e-19
DICPCG:  Solving for p, Initial residual = 0.000163908, Final residual = 6.04116e-07, No Iterations 23
time step continuity errors : sum local = 7.55244e-10, global = -5.22116e-20, cumulative = 9.89983e-20
ExecutionTime = 0.31 s  ClockTime = 1 s

Time = 0.059

Courant Number mean: 0.0435653 max: 0.170011
smoothSolver:  Solving for Ux, Initial residual = 0.000484873, Final residual = 3.14201e-06, No Iterations 3
smoothSolver:  Solving for Uy, Initial residual = 0.000738995, Final residual = 4.79838e-06, No Iterations 3
DICPCG:  Solving for p, Initial residual = 0.000303071, Final residual = 1.37788e-05, No Iterations 8
time step continuity errors : sum local = 1.92073e-08, global = -1.34797e-19, cumulative = -3.57991e-20
DICPCG:  Solving for p, Initial residual = 0.000155287, Final residual = 5.70152e-07, No Iterations 23
time step continuity errors : sum local = 7.12976e-10, global = -1.07037e-20, cumulative = -4.65028e-20
ExecutionTime = 0.32 s  ClockTime = 1 s

Time = 0.06

Courant Number mean: 0.0436089 max: 0.170034
smoothSolver:  Solving for Ux, Initial residual = 0.000460042, Final residual = 2.98162e-06, No Iterations 3
smoothSolver:  Solving for Uy, Initial residual = 0.000701241, Final residual = 4.553e-06, No Iterations 3
DICPCG:  Solving for p, Initial residual = 0.000287272, Final residual = 1.29158e-05, No Iterations 8
time step continuity errors : sum local = 1.79937e-08, global = -2.33364e-19, cumulative = -2.79867e-19
DICPCG:  Solving for p, Initial residual = 0.000147127, Final residual = 5.37832e-07, No Iterations 23
time step continuity errors : sum local = 6.72757e-10, global = 2.69661e-21, cumulative = -2.7717e-19
ExecutionTime = 0.33 s  ClockTime = 1 s

Time = 0.061

Courant Number mean: 0.0436502 max: 0.170055
smoothSolver:  Solving for Ux, Initial residual = 0.000436514, Final residual = 2.8297e-06, No Iterations 3
smoothSolver:  Solving for Uy, Initial residual = 0.000665483, Final residual = 4.32062e-06, No Iterations 3
DICPCG:  Solving for p, Initial residual = 0.000272293, Final residual = 1.21127e-05, No Iterations 8
time step continuity errors : sum local = 1.68819e-08, global = -2.22015e-19, cumulative = -4.99186e-19
DICPCG:  Solving for p, Initial residual = 0.000139411, Final residual = 5.07233e-07, No Iterations 23
time step continuity errors : sum local = 6.34661e-10, global = 1.84743e-19, cumulative = -3.14443e-19
ExecutionTime = 0.34 s  ClockTime = 1 s

Time = 0.062

Courant Number mean: 0.0436893 max: 0.170076
smoothSolver:  Solving for Ux, Initial residual = 0.000414214, Final residual = 2.68566e-06, No Iterations 3
smoothSolver:  Solving for Uy, Initial residual = 0.000631615, Final residual = 4.10052e-06, No Iterations 3
DICPCG:  Solving for p, Initial residual = 0.000258117, Final residual = 1.13559e-05, No Iterations 8
time step continuity errors : sum local = 1.58238e-08, global = 2.2357e-19, cumulative = -9.08727e-20
DICPCG:  Solving for p, Initial residual = 0.000132126, Final residual = 4.78053e-07, No Iterations 23
time step continuity errors : sum local = 5.98321e-10, global = -4.55115e-20, cumulative = -1.36384e-19
ExecutionTime = 0.34 s  ClockTime = 1 s

Time = 0.063

Courant Number mean: 0.0437264 max: 0.170095
smoothSolver:  Solving for Ux, Initial residual = 0.00039308, Final residual = 2.54912e-06, No Iterations 3
smoothSolver:  Solving for Uy, Initial residual = 0.000599525, Final residual = 3.89199e-06, No Iterations 3
DICPCG:  Solving for p, Initial residual = 0.000244698, Final residual = 1.06518e-05, No Iterations 8
time step continuity errors : sum local = 1.48452e-08, global = 7.21301e-20, cumulative = -6.42541e-20
DICPCG:  Solving for p, Initial residual = 0.000125245, Final residual = 4.50036e-07, No Iterations 23
time step continuity errors : sum local = 5.63416e-10, global = 2.39882e-21, cumulative = -6.18553e-20
ExecutionTime = 0.34 s  ClockTime = 1 s

Time = 0.064

Courant Number mean: 0.0437616 max: 0.170113
smoothSolver:  Solving for Ux, Initial residual = 0.000373047, Final residual = 2.41972e-06, No Iterations 3
smoothSolver:  Solving for Uy, Initial residual = 0.000569116, Final residual = 3.69439e-06, No Iterations 3
DICPCG:  Solving for p, Initial residual = 0.000232002, Final residual = 9.99099e-06, No Iterations 8
time step continuity errors : sum local = 1.3923e-08, global = -2.33778e-19, cumulative = -2.95633e-19
DICPCG:  Solving for p, Initial residual = 0.000118734, Final residual = 4.23047e-07, No Iterations 23
time step continuity errors : sum local = 5.29778e-10, global = 8.71683e-20, cumulative = -2.08465e-19
ExecutionTime = 0.34 s  ClockTime = 1 s

Time = 0.065

Courant Number mean: 0.043795 max: 0.17013
smoothSolver:  Solving for Ux, Initial residual = 0.000354057, Final residual = 2.29701e-06, No Iterations 3
smoothSolver:  Solving for Uy, Initial residual = 0.000540292, Final residual = 3.5071e-06, No Iterations 3
DICPCG:  Solving for p, Initial residual = 0.000219995, Final residual = 9.37385e-06, No Iterations 8
time step continuity errors : sum local = 1.30639e-08, global = 1.21761e-20, cumulative = -1.96289e-19
DICPCG:  Solving for p, Initial residual = 0.000112581, Final residual = 3.96998e-07, No Iterations 23
time step continuity errors : sum local = 4.97298e-10, global = -1.69208e-19, cumulative = -3.65497e-19
ExecutionTime = 0.35 s  ClockTime = 1 s

Time = 0.066

Courant Number mean: 0.0438267 max: 0.170146
smoothSolver:  Solving for Ux, Initial residual = 0.000336051, Final residual = 2.18067e-06, No Iterations 3
smoothSolver:  Solving for Uy, Initial residual = 0.000512967, Final residual = 3.32956e-06, No Iterations 3
DICPCG:  Solving for p, Initial residual = 0.000208625, Final residual = 8.79658e-06, No Iterations 8
time step continuity errors : sum local = 1.22588e-08, global = -1.79498e-20, cumulative = -3.83447e-19
DICPCG:  Solving for p, Initial residual = 0.00010676, Final residual = 3.71761e-07, No Iterations 23
time step continuity errors : sum local = 4.65817e-10, global = 1.12861e-19, cumulative = -2.70586e-19
ExecutionTime = 0.36 s  ClockTime = 1 s

Time = 0.067

Courant Number mean: 0.0438567 max: 0.170161
smoothSolver:  Solving for Ux, Initial residual = 0.000318979, Final residual = 2.0704e-06, No Iterations 3
smoothSolver:  Solving for Uy, Initial residual = 0.000487058, Final residual = 3.16124e-06, No Iterations 3
DICPCG:  Solving for p, Initial residual = 0.000197859, Final residual = 8.25746e-06, No Iterations 8
time step continuity errors : sum local = 1.15076e-08, global = 2.76675e-19, cumulative = 6.08935e-21
DICPCG:  Solving for p, Initial residual = 0.000101258, Final residual = 9.70654e-07, No Iterations 22
time step continuity errors : sum local = 1.21715e-09, global = -3.65779e-20, cumulative = -3.04886e-20
ExecutionTime = 0.36 s  ClockTime = 1 s

Time = 0.068

Courant Number mean: 0.0438852 max: 0.170175
smoothSolver:  Solving for Ux, Initial residual = 0.000302791, Final residual = 1.9658e-06, No Iterations 3
smoothSolver:  Solving for Uy, Initial residual = 0.000462492, Final residual = 3.00164e-06, No Iterations 3
DICPCG:  Solving for p, Initial residual = 0.000187598, Final residual = 7.77527e-06, No Iterations 8
time step continuity errors : sum local = 1.08354e-08, global = 8.27189e-22, cumulative = -2.96614e-20
DICPCG:  Solving for p, Initial residual = 9.60282e-05, Final residual = 9.26958e-07, No Iterations 20
time step continuity errors : sum local = 1.19582e-09, global = 1.89044e-19, cumulative = 1.59382e-19
ExecutionTime = 0.36 s  ClockTime = 1 s

Time = 0.069

Courant Number mean: 0.0439122 max: 0.170188
smoothSolver:  Solving for Ux, Initial residual = 0.000287447, Final residual = 1.86665e-06, No Iterations 3
smoothSolver:  Solving for Uy, Initial residual = 0.000439195, Final residual = 2.85029e-06, No Iterations 3
DICPCG:  Solving for p, Initial residual = 0.000177864, Final residual = 7.37251e-06, No Iterations 8
time step continuity errors : sum local = 1.02764e-08, global = 2.31776e-20, cumulative = 1.8256e-19
DICPCG:  Solving for p, Initial residual = 9.10207e-05, Final residual = 9.10835e-07, No Iterations 22
time step continuity errors : sum local = 1.14274e-09, global = -1.51291e-19, cumulative = 3.12687e-20
ExecutionTime = 0.36 s  ClockTime = 1 s

Time = 0.07

Courant Number mean: 0.0439378 max: 0.170201
smoothSolver:  Solving for Ux, Initial residual = 0.000272886, Final residual = 9.5054e-06, No Iterations 2
smoothSolver:  Solving for Uy, Initial residual = 0.000417085, Final residual = 2.70667e-06, No Iterations 3
DICPCG:  Solving for p, Initial residual = 0.000172315, Final residual = 6.45211e-06, No Iterations 8
time step continuity errors : sum local = 8.82964e-09, global = -8.20729e-20, cumulative = -5.08041e-20
DICPCG:  Solving for p, Initial residual = 9.62508e-05, Final residual = 7.73748e-07, No Iterations 12
time step continuity errors : sum local = 1.23565e-09, global = 9.27269e-20, cumulative = 4.19228e-20
ExecutionTime = 0.37 s  ClockTime = 1 s

Time = 0.071

Courant Number mean: 0.0439621 max: 0.170213
smoothSolver:  Solving for Ux, Initial residual = 0.000259483, Final residual = 9.0384e-06, No Iterations 2
smoothSolver:  Solving for Uy, Initial residual = 0.000395775, Final residual = 2.56838e-06, No Iterations 3
DICPCG:  Solving for p, Initial residual = 0.00016628, Final residual = 6.26219e-06, No Iterations 8
time step continuity errors : sum local = 8.40392e-09, global = 7.27919e-20, cumulative = 1.14715e-19
DICPCG:  Solving for p, Initial residual = 9.16771e-05, Final residual = 7.77825e-07, No Iterations 19
time step continuity errors : sum local = 9.71368e-10, global = 1.01429e-19, cumulative = 2.16144e-19
ExecutionTime = 0.37 s  ClockTime = 1 s

Time = 0.072

Courant Number mean: 0.043985 max: 0.170224
smoothSolver:  Solving for Ux, Initial residual = 0.000246229, Final residual = 8.57856e-06, No Iterations 2
smoothSolver:  Solving for Uy, Initial residual = 0.000376306, Final residual = 2.44139e-06, No Iterations 3
DICPCG:  Solving for p, Initial residual = 0.000170642, Final residual = 6.1644e-06, No Iterations 8
time step continuity errors : sum local = 8.557e-09, global = 2.89182e-20, cumulative = 2.45062e-19
DICPCG:  Solving for p, Initial residual = 8.99462e-05, Final residual = 6.75219e-07, No Iterations 12
time step continuity errors : sum local = 9.72968e-10, global = -1.75114e-19, cumulative = 6.99477e-20
ExecutionTime = 0.38 s  ClockTime = 1 s

Time = 0.073

Courant Number mean: 0.044007 max: 0.170235
smoothSolver:  Solving for Ux, Initial residual = 0.000234194, Final residual = 8.15868e-06, No Iterations 2
smoothSolver:  Solving for Uy, Initial residual = 0.000356999, Final residual = 2.31631e-06, No Iterations 3
DICPCG:  Solving for p, Initial residual = 0.000161651, Final residual = 5.2494e-06, No Iterations 8
time step continuity errors : sum local = 6.9173e-09, global = -3.08753e-19, cumulative = -2.38806e-19
DICPCG:  Solving for p, Initial residual = 8.05024e-05, Final residual = 7.88766e-07, No Iterations 19
time step continuity errors : sum local = 9.92949e-10, global = -1.35724e-19, cumulative = -3.7453e-19
ExecutionTime = 0.39 s  ClockTime = 1 s

Time = 0.074

Courant Number mean: 0.044028 max: 0.170245
smoothSolver:  Solving for Ux, Initial residual = 0.000222218, Final residual = 7.74286e-06, No Iterations 2
smoothSolver:  Solving for Uy, Initial residual = 0.000339627, Final residual = 2.20308e-06, No Iterations 3
DICPCG:  Solving for p, Initial residual = 0.00014348, Final residual = 4.70636e-06, No Iterations 8
time step continuity errors : sum local = 6.45585e-09, global = -3.13005e-20, cumulative = -4.0583e-19
DICPCG:  Solving for p, Initial residual = 7.79853e-05, Final residual = 6.4881e-07, No Iterations 12
time step continuity errors : sum local = 1.05615e-09, global = -9.01131e-20, cumulative = -4.95943e-19
ExecutionTime = 0.39 s  ClockTime = 1 s

Time = 0.075

Courant Number mean: 0.0440478 max: 0.170254
smoothSolver:  Solving for Ux, Initial residual = 0.000211293, Final residual = 7.36182e-06, No Iterations 2
smoothSolver:  Solving for Uy, Initial residual = 0.000322405, Final residual = 2.09148e-06, No Iterations 3
DICPCG:  Solving for p, Initial residual = 0.000133733, Final residual = 4.89432e-06, No Iterations 8
time step continuity errors : sum local = 6.63241e-09, global = -3.09366e-21, cumulative = -4.99037e-19
DICPCG:  Solving for p, Initial residual = 7.4242e-05, Final residual = 6.20728e-07, No Iterations 19
time step continuity errors : sum local = 7.7485e-10, global = -1.73212e-20, cumulative = -5.16358e-19
ExecutionTime = 0.39 s  ClockTime = 1 s

Time = 0.076

Courant Number mean: 0.0440667 max: 0.170263
smoothSolver:  Solving for Ux, Initial residual = 0.000200526, Final residual = 6.98764e-06, No Iterations 2
smoothSolver:  Solving for Uy, Initial residual = 0.000306639, Final residual = 1.98878e-06, No Iterations 3
DICPCG:  Solving for p, Initial residual = 0.000126016, Final residual = 4.02909e-06, No Iterations 8
time step continuity errors : sum local = 5.80009e-09, global = -5.25739e-19, cumulative = -1.0421e-18
DICPCG:  Solving for p, Initial residual = 7.03687e-05, Final residual = 9.86726e-07, No Iterations 11
time step continuity errors : sum local = 1.28235e-09, global = -1.7657e-19, cumulative = -1.21867e-18
ExecutionTime = 0.39 s  ClockTime = 1 s

Time = 0.077

Courant Number mean: 0.0440846 max: 0.170272
smoothSolver:  Solving for Ux, Initial residual = 0.000190749, Final residual = 6.6464e-06, No Iterations 2
smoothSolver:  Solving for Uy, Initial residual = 0.000291024, Final residual = 1.88773e-06, No Iterations 3
DICPCG:  Solving for p, Initial residual = 0.000119582, Final residual = 4.1288e-06, No Iterations 8
time step continuity errors : sum local = 5.38383e-09, global = 6.67038e-20, cumulative = -1.15196e-18
DICPCG:  Solving for p, Initial residual = 6.65806e-05, Final residual = 5.52759e-07, No Iterations 19
time step continuity errors : sum local = 6.90186e-10, global = -8.23376e-20, cumulative = -1.2343e-18
ExecutionTime = 0.41 s  ClockTime = 1 s

Time = 0.078

Courant Number mean: 0.0441016 max: 0.17028
smoothSolver:  Solving for Ux, Initial residual = 0.000181111, Final residual = 6.31129e-06, No Iterations 2
smoothSolver:  Solving for Uy, Initial residual = 0.000276748, Final residual = 9.63581e-06, No Iterations 2
DICPCG:  Solving for p, Initial residual = 0.000105848, Final residual = 3.37507e-06, No Iterations 6
time step continuity errors : sum local = 4.73722e-09, global = 3.0111e-19, cumulative = -9.33191e-19
DICPCG:  Solving for p, Initial residual = 5.21002e-05, Final residual = 5.50372e-07, No Iterations 17
time step continuity errors : sum local = 6.94724e-10, global = -2.13959e-19, cumulative = -1.14715e-18
ExecutionTime = 0.41 s  ClockTime = 1 s

Time = 0.079

Courant Number mean: 0.0441176 max: 0.170287
smoothSolver:  Solving for Ux, Initial residual = 0.000172127, Final residual = 5.99788e-06, No Iterations 2
smoothSolver:  Solving for Uy, Initial residual = 0.000263068, Final residual = 9.15975e-06, No Iterations 2
DICPCG:  Solving for p, Initial residual = 0.000101687, Final residual = 2.36748e-06, No Iterations 6
time step continuity errors : sum local = 3.29821e-09, global = 2.14736e-20, cumulative = -1.12568e-18
DICPCG:  Solving for p, Initial residual = 5.0016e-05, Final residual = 8.38896e-07, No Iterations 6
time step continuity errors : sum local = 1.36471e-09, global = 1.3665e-20, cumulative = -1.11201e-18
ExecutionTime = 0.41 s  ClockTime = 1 s

Time = 0.08

Courant Number mean: 0.0441329 max: 0.170294
smoothSolver:  Solving for Ux, Initial residual = 0.000163652, Final residual = 5.70199e-06, No Iterations 2
smoothSolver:  Solving for Uy, Initial residual = 0.000250038, Final residual = 8.70648e-06, No Iterations 2
DICPCG:  Solving for p, Initial residual = 9.6776e-05, Final residual = 4.30834e-06, No Iterations 6
time step continuity errors : sum local = 6.48775e-09, global = -8.67382e-20, cumulative = -1.19875e-18
DICPCG:  Solving for p, Initial residual = 4.75983e-05, Final residual = 4.91609e-07, No Iterations 17
time step continuity errors : sum local = 6.22719e-10, global = 6.12941e-20, cumulative = -1.13745e-18
ExecutionTime = 0.41 s  ClockTime = 1 s

Time = 0.081

Courant Number mean: 0.0441474 max: 0.170301
smoothSolver:  Solving for Ux, Initial residual = 0.000155413, Final residual = 5.4151e-06, No Iterations 2
smoothSolver:  Solving for Uy, Initial residual = 0.000237911, Final residual = 8.28281e-06, No Iterations 2
DICPCG:  Solving for p, Initial residual = 9.18192e-05, Final residual = 1.51947e-06, No Iterations 6
time step continuity errors : sum local = 2.14528e-09, global = 7.20971e-20, cumulative = -1.06536e-18
DICPCG:  Solving for p, Initial residual = 4.52085e-05, Final residual = 6.42403e-07, No Iterations 6
time step continuity errors : sum local = 1.02424e-09, global = -2.1821e-19, cumulative = -1.28357e-18
ExecutionTime = 0.43 s  ClockTime = 1 s

Time = 0.082

Courant Number mean: 0.0441611 max: 0.170307
smoothSolver:  Solving for Ux, Initial residual = 0.000147867, Final residual = 5.15127e-06, No Iterations 2
smoothSolver:  Solving for Uy, Initial residual = 0.000226011, Final residual = 7.86988e-06, No Iterations 2
DICPCG:  Solving for p, Initial residual = 8.75462e-05, Final residual = 3.82286e-06, No Iterations 6
time step continuity errors : sum local = 5.09584e-09, global = 6.77792e-20, cumulative = -1.21579e-18
DICPCG:  Solving for p, Initial residual = 4.30177e-05, Final residual = 7.68477e-07, No Iterations 6
time step continuity errors : sum local = 1.26101e-09, global = -1.22853e-19, cumulative = -1.33864e-18
ExecutionTime = 0.43 s  ClockTime = 1 s

Time = 0.083

Courant Number mean: 0.0441742 max: 0.170313
smoothSolver:  Solving for Ux, Initial residual = 0.000140626, Final residual = 4.89879e-06, No Iterations 2
smoothSolver:  Solving for Uy, Initial residual = 0.000214763, Final residual = 7.47818e-06, No Iterations 2
DICPCG:  Solving for p, Initial residual = 8.28653e-05, Final residual = 2.73258e-06, No Iterations 6
time step continuity errors : sum local = 4.45393e-09, global = -1.7389e-19, cumulative = -1.51253e-18
DICPCG:  Solving for p, Initial residual = 4.07095e-05, Final residual = 3.65768e-07, No Iterations 17
time step continuity errors : sum local = 4.61279e-10, global = 4.86051e-20, cumulative = -1.46393e-18
ExecutionTime = 0.43 s  ClockTime = 1 s

Time = 0.084

Courant Number mean: 0.0441866 max: 0.170319
smoothSolver:  Solving for Ux, Initial residual = 0.000133515, Final residual = 4.65137e-06, No Iterations 2
smoothSolver:  Solving for Uy, Initial residual = 0.000204482, Final residual = 7.11847e-06, No Iterations 2
DICPCG:  Solving for p, Initial residual = 7.87625e-05, Final residual = 1.37019e-06, No Iterations 6
time step continuity errors : sum local = 1.98898e-09, global = 6.11783e-20, cumulative = -1.40275e-18
DICPCG:  Solving for p, Initial residual = 3.87583e-05, Final residual = 5.65441e-07, No Iterations 6
time step continuity errors : sum local = 9.42417e-10, global = 6.36764e-20, cumulative = -1.33907e-18
ExecutionTime = 0.43 s  ClockTime = 1 s

Time = 0.085

Courant Number mean: 0.0441984 max: 0.170324
smoothSolver:  Solving for Ux, Initial residual = 0.00012709, Final residual = 4.4266e-06, No Iterations 2
smoothSolver:  Solving for Uy, Initial residual = 0.000194183, Final residual = 6.76143e-06, No Iterations 2
DICPCG:  Solving for p, Initial residual = 7.50906e-05, Final residual = 2.9272e-06, No Iterations 6
time step continuity errors : sum local = 3.86604e-09, global = -1.28312e-19, cumulative = -1.46738e-18
DICPCG:  Solving for p, Initial residual = 3.68577e-05, Final residual = 6.32659e-07, No Iterations 6
time step continuity errors : sum local = 9.82201e-10, global = 9.98738e-20, cumulative = -1.36751e-18
ExecutionTime = 0.44 s  ClockTime = 1 s

Time = 0.086

Courant Number mean: 0.0442096 max: 0.170329
smoothSolver:  Solving for Ux, Initial residual = 0.000120862, Final residual = 4.20976e-06, No Iterations 2
smoothSolver:  Solving for Uy, Initial residual = 0.000184566, Final residual = 6.42638e-06, No Iterations 2
DICPCG:  Solving for p, Initial residual = 7.10941e-05, Final residual = 2.28955e-06, No Iterations 6
time step continuity errors : sum local = 3.67076e-09, global = -1.75395e-19, cumulative = -1.54291e-18
DICPCG:  Solving for p, Initial residual = 3.49093e-05, Final residual = 9.15602e-07, No Iterations 16
time step continuity errors : sum local = 1.14777e-09, global = -1.14895e-19, cumulative = -1.6578e-18
ExecutionTime = 0.44 s  ClockTime = 1 s

Time = 0.087

Courant Number mean: 0.0442203 max: 0.170334
smoothSolver:  Solving for Ux, Initial residual = 0.000114803, Final residual = 3.99889e-06, No Iterations 2
smoothSolver:  Solving for Uy, Initial residual = 0.000175683, Final residual = 6.11581e-06, No Iterations 2
DICPCG:  Solving for p, Initial residual = 6.73041e-05, Final residual = 1.12535e-06, No Iterations 6
time step continuity errors : sum local = 1.56118e-09, global = -2.19451e-19, cumulative = -1.87725e-18
DICPCG:  Solving for p, Initial residual = 3.31748e-05, Final residual = 4.58052e-07, No Iterations 6
time step continuity errors : sum local = 7.07067e-10, global = 1.31141e-19, cumulative = -1.74611e-18
ExecutionTime = 0.45 s  ClockTime = 1 s

Time = 0.088

Courant Number mean: 0.0442304 max: 0.170339
smoothSolver:  Solving for Ux, Initial residual = 0.000109249, Final residual = 3.80492e-06, No Iterations 2
smoothSolver:  Solving for Uy, Initial residual = 0.000166895, Final residual = 5.81091e-06, No Iterations 2
DICPCG:  Solving for p, Initial residual = 6.44962e-05, Final residual = 2.50693e-06, No Iterations 6
time step continuity errors : sum local = 3.388e-09, global = -2.37004e-19, cumulative = -1.98311e-18
DICPCG:  Solving for p, Initial residual = 3.16243e-05, Final residual = 5.70975e-07, No Iterations 6
time step continuity errors : sum local = 9.47163e-10, global = -1.98523e-22, cumulative = -1.98331e-18
ExecutionTime = 0.45 s  ClockTime = 1 s

Time = 0.089

Courant Number mean: 0.04424 max: 0.170343
smoothSolver:  Solving for Ux, Initial residual = 0.000103918, Final residual = 3.61924e-06, No Iterations 2
smoothSolver:  Solving for Uy, Initial residual = 0.00015862, Final residual = 5.52266e-06, No Iterations 2
DICPCG:  Solving for p, Initial residual = 6.0998e-05, Final residual = 1.93306e-06, No Iterations 6
time step continuity errors : sum local = 3.17648e-09, global = -3.5271e-20, cumulative = -2.01858e-18
DICPCG:  Solving for p, Initial residual = 2.99491e-05, Final residual = 9.82352e-07, No Iterations 6
time step continuity errors : sum local = 1.90575e-09, global = -2.69992e-20, cumulative = -2.04558e-18
ExecutionTime = 0.46 s  ClockTime = 1 s

Time = 0.09

Courant Number mean: 0.0442492 max: 0.170347
smoothSolver:  Solving for Ux, Initial residual = 9.88135e-05, Final residual = 3.44156e-06, No Iterations 2
smoothSolver:  Solving for Uy, Initial residual = 0.000150822, Final residual = 5.25096e-06, No Iterations 2
DICPCG:  Solving for p, Initial residual = 5.7962e-05, Final residual = 2.45282e-06, No Iterations 6
time step continuity errors : sum local = 4.26519e-09, global = -2.03652e-20, cumulative = -2.06595e-18
DICPCG:  Solving for p, Initial residual = 2.84763e-05, Final residual = 7.5673e-07, No Iterations 16
time step continuity errors : sum local = 9.5019e-10, global = 6.60256e-20, cumulative = -1.99992e-18
ExecutionTime = 0.46 s  ClockTime = 1 s

Time = 0.091

Courant Number mean: 0.0442579 max: 0.170351
smoothSolver:  Solving for Ux, Initial residual = 9.37634e-05, Final residual = 3.26613e-06, No Iterations 2
smoothSolver:  Solving for Uy, Initial residual = 0.000143769, Final residual = 5.00273e-06, No Iterations 2
DICPCG:  Solving for p, Initial residual = 5.54333e-05, Final residual = 1.32956e-06, No Iterations 6
time step continuity errors : sum local = 2.3398e-09, global = -2.24993e-20, cumulative = -2.02242e-18
DICPCG:  Solving for p, Initial residual = 2.72352e-05, Final residual = 7.97643e-07, No Iterations 6
time step continuity errors : sum local = 1.59856e-09, global = -7.17331e-20, cumulative = -2.09416e-18
ExecutionTime = 0.47 s  ClockTime = 1 s

Time = 0.092

Courant Number mean: 0.0442661 max: 0.170355
smoothSolver:  Solving for Ux, Initial residual = 8.93176e-05, Final residual = 3.11066e-06, No Iterations 2
smoothSolver:  Solving for Uy, Initial residual = 0.000136422, Final residual = 4.74937e-06, No Iterations 2
DICPCG:  Solving for p, Initial residual = 5.28829e-05, Final residual = 2.06517e-06, No Iterations 6
time step continuity errors : sum local = 3.00682e-09, global = -2.84368e-19, cumulative = -2.37852e-18
DICPCG:  Solving for p, Initial residual = 2.58498e-05, Final residual = 5.95369e-07, No Iterations 6
time step continuity errors : sum local = 1.15335e-09, global = 1.21199e-19, cumulative = -2.25732e-18
ExecutionTime = 0.47 s  ClockTime = 1 s

Time = 0.093

Courant Number mean: 0.044274 max: 0.170358
smoothSolver:  Solving for Ux, Initial residual = 8.49699e-05, Final residual = 2.95937e-06, No Iterations 2
smoothSolver:  Solving for Uy, Initial residual = 0.000129655, Final residual = 4.51392e-06, No Iterations 2
DICPCG:  Solving for p, Initial residual = 4.97645e-05, Final residual = 1.33734e-06, No Iterations 6
time step continuity errors : sum local = 1.67067e-09, global = -1.31853e-19, cumulative = -2.38918e-18
DICPCG:  Solving for p, Initial residual = 2.44275e-05, Final residual = 3.93524e-07, No Iterations 6
time step continuity errors : sum local = 5.33179e-10, global = 3.34181e-21, cumulative = -2.38584e-18
ExecutionTime = 0.47 s  ClockTime = 1 s

Time = 0.094

Courant Number mean: 0.0442814 max: 0.170362
smoothSolver:  Solving for Ux, Initial residual = 8.08163e-05, Final residual = 2.81474e-06, No Iterations 2
smoothSolver:  Solving for Uy, Initial residual = 0.000123271, Final residual = 4.29149e-06, No Iterations 2
DICPCG:  Solving for p, Initial residual = 4.73995e-05, Final residual = 1.54865e-06, No Iterations 6
time step continuity errors : sum local = 2.33595e-09, global = 1.21629e-19, cumulative = -2.26421e-18
DICPCG:  Solving for p, Initial residual = 2.32134e-05, Final residual = 5.52192e-07, No Iterations 6
time step continuity errors : sum local = 1.03585e-09, global = -9.69456e-21, cumulative = -2.2739e-18
ExecutionTime = 0.47 s  ClockTime = 1 s

Time = 0.095

Courant Number mean: 0.0442885 max: 0.170365
smoothSolver:  Solving for Ux, Initial residual = 7.68532e-05, Final residual = 2.67682e-06, No Iterations 2
smoothSolver:  Solving for Uy, Initial residual = 0.000117211, Final residual = 4.08039e-06, No Iterations 2
DICPCG:  Solving for p, Initial residual = 4.49837e-05, Final residual = 1.63341e-06, No Iterations 6
time step continuity errors : sum local = 2.80795e-09, global = 3.44273e-20, cumulative = -2.23947e-18
DICPCG:  Solving for p, Initial residual = 2.2058e-05, Final residual = 5.87465e-07, No Iterations 16
time step continuity errors : sum local = 7.38131e-10, global = 9.30578e-20, cumulative = -2.14642e-18
ExecutionTime = 0.48 s  ClockTime = 1 s

Time = 0.096

Courant Number mean: 0.0442952 max: 0.170368
smoothSolver:  Solving for Ux, Initial residual = 7.29554e-05, Final residual = 2.54155e-06, No Iterations 2
smoothSolver:  Solving for Uy, Initial residual = 0.000111681, Final residual = 3.88633e-06, No Iterations 2
DICPCG:  Solving for p, Initial residual = 4.27377e-05, Final residual = 8.26219e-07, No Iterations 6
time step continuity errors : sum local = 1.38334e-09, global = 8.85249e-20, cumulative = -2.05789e-18
DICPCG:  Solving for p, Initial residual = 2.10574e-05, Final residual = 9.75776e-07, No Iterations 5
time step continuity errors : sum local = 1.52811e-09, global = -6.70513e-20, cumulative = -2.12494e-18
ExecutionTime = 0.49 s  ClockTime = 1 s

Time = 0.097

Courant Number mean: 0.0443016 max: 0.170371
smoothSolver:  Solving for Ux, Initial residual = 6.94775e-05, Final residual = 2.41994e-06, No Iterations 2
smoothSolver:  Solving for Uy, Initial residual = 0.000106027, Final residual = 3.69099e-06, No Iterations 2
DICPCG:  Solving for p, Initial residual = 4.12449e-05, Final residual = 1.52185e-06, No Iterations 6
time step continuity errors : sum local = 2.04509e-09, global = -1.18783e-20, cumulative = -2.13682e-18
DICPCG:  Solving for p, Initial residual = 2.01219e-05, Final residual = 9.05103e-07, No Iterations 5
time step continuity errors : sum local = 1.26854e-09, global = -3.36993e-20, cumulative = -2.17052e-18
ExecutionTime = 0.49 s  ClockTime = 1 s

Time = 0.098

Courant Number mean: 0.0443077 max: 0.170373
smoothSolver:  Solving for Ux, Initial residual = 6.60918e-05, Final residual = 2.30205e-06, No Iterations 2
smoothSolver:  Solving for Uy, Initial residual = 0.000100786, Final residual = 3.50848e-06, No Iterations 2
DICPCG:  Solving for p, Initial residual = 3.8781e-05, Final residual = 1.07502e-06, No Iterations 6
time step continuity errors : sum local = 1.51299e-09, global = 6.99464e-20, cumulative = -2.10057e-18
DICPCG:  Solving for p, Initial residual = 1.90064e-05, Final residual = 8.7237e-07, No Iterations 5
time step continuity errors : sum local = 1.22493e-09, global = -2.52373e-19, cumulative = -2.35295e-18
ExecutionTime = 0.49 s  ClockTime = 1 s

Time = 0.099

Courant Number mean: 0.0443135 max: 0.170376
smoothSolver:  Solving for Ux, Initial residual = 6.2863e-05, Final residual = 2.18961e-06, No Iterations 2
smoothSolver:  Solving for Uy, Initial residual = 9.58274e-05, Final residual = 3.33576e-06, No Iterations 2
DICPCG:  Solving for p, Initial residual = 3.69133e-05, Final residual = 1.25927e-06, No Iterations 6
time step continuity errors : sum local = 2.03823e-09, global = 7.73248e-20, cumulative = -2.27562e-18
DICPCG:  Solving for p, Initial residual = 1.80647e-05, Final residual = 9.40148e-07, No Iterations 5
time step continuity errors : sum local = 1.59267e-09, global = 1.18684e-19, cumulative = -2.15694e-18
ExecutionTime = 0.5 s  ClockTime = 1 s

Time = 0.1

Courant Number mean: 0.044319 max: 0.170378
smoothSolver:  Solving for Ux, Initial residual = 5.97811e-05, Final residual = 2.08232e-06, No Iterations 2
smoothSolver:  Solving for Uy, Initial residual = 9.11239e-05, Final residual = 3.17193e-06, No Iterations 2
DICPCG:  Solving for p, Initial residual = 3.5108e-05, Final residual = 1.40117e-06, No Iterations 6
time step continuity errors : sum local = 2.47878e-09, global = 4.54122e-20, cumulative = -2.11153e-18
DICPCG:  Solving for p, Initial residual = 1.71931e-05, Final residual = 4.5193e-07, No Iterations 16
time step continuity errors : sum local = 5.68765e-10, global = 1.08361e-19, cumulative = -2.00317e-18
ExecutionTime = 0.51 s  ClockTime = 1 s

Time = 0.101

Courant Number mean: 0.0443242 max: 0.170381
smoothSolver:  Solving for Ux, Initial residual = 5.6726e-05, Final residual = 1.97632e-06, No Iterations 2
smoothSolver:  Solving for Uy, Initial residual = 8.68751e-05, Final residual = 3.02243e-06, No Iterations 2
DICPCG:  Solving for p, Initial residual = 3.32434e-05, Final residual = 8.17932e-07, No Iterations 6
time step continuity errors : sum local = 1.43635e-09, global = 6.04338e-20, cumulative = -1.94273e-18
DICPCG:  Solving for p, Initial residual = 1.6369e-05, Final residual = 8.23651e-07, No Iterations 5
time step continuity errors : sum local = 1.3962e-09, global = -7.69609e-20, cumulative = -2.01969e-18
ExecutionTime = 0.51 s  ClockTime = 1 s

Time = 0.102

Courant Number mean: 0.0443292 max: 0.170383
smoothSolver:  Solving for Ux, Initial residual = 5.40439e-05, Final residual = 1.88249e-06, No Iterations 2
smoothSolver:  Solving for Uy, Initial residual = 8.2441e-05, Final residual = 2.86957e-06, No Iterations 2
DICPCG:  Solving for p, Initial residual = 3.2125e-05, Final residual = 1.21991e-06, No Iterations 6
time step continuity errors : sum local = 1.80296e-09, global = -7.1121e-20, cumulative = -2.09081e-18
DICPCG:  Solving for p, Initial residual = 1.56474e-05, Final residual = 7.41813e-07, No Iterations 5
time step continuity errors : sum local = 1.19343e-09, global = 6.09467e-20, cumulative = -2.02987e-18
ExecutionTime = 0.51 s  ClockTime = 1 s

Time = 0.103

Courant Number mean: 0.0443339 max: 0.170385
smoothSolver:  Solving for Ux, Initial residual = 5.14115e-05, Final residual = 9.59852e-06, No Iterations 1
smoothSolver:  Solving for Uy, Initial residual = 7.83661e-05, Final residual = 2.72781e-06, No Iterations 2
DICPCG:  Solving for p, Initial residual = 5.59402e-05, Final residual = 1.29903e-06, No Iterations 18
time step continuity errors : sum local = 1.62484e-09, global = -1.23035e-19, cumulative = -2.1529e-18
DICPCG:  Solving for p, Initial residual = 4.44141e-05, Final residual = 7.04161e-07, No Iterations 18
time step continuity errors : sum local = 8.77589e-10, global = 2.04975e-19, cumulative = -1.94793e-18
ExecutionTime = 0.52 s  ClockTime = 1 s

Time = 0.104

Courant Number mean: 0.0443383 max: 0.170387
smoothSolver:  Solving for Ux, Initial residual = 4.91149e-05, Final residual = 9.17198e-06, No Iterations 1
smoothSolver:  Solving for Uy, Initial residual = 7.44358e-05, Final residual = 2.58977e-06, No Iterations 2
DICPCG:  Solving for p, Initial residual = 5.22451e-05, Final residual = 2.14826e-06, No Iterations 11
time step continuity errors : sum local = 3.67762e-09, global = 2.17218e-20, cumulative = -1.9262e-18
DICPCG:  Solving for p, Initial residual = 4.17406e-05, Final residual = 7.1598e-07, No Iterations 10
time step continuity errors : sum local = 9.36828e-10, global = -2.06961e-19, cumulative = -2.13317e-18
ExecutionTime = 0.52 s  ClockTime = 1 s

Time = 0.105

Courant Number mean: 0.0443425 max: 0.170389
smoothSolver:  Solving for Ux, Initial residual = 4.69164e-05, Final residual = 8.75927e-06, No Iterations 1
smoothSolver:  Solving for Uy, Initial residual = 7.07091e-05, Final residual = 2.45968e-06, No Iterations 2
DICPCG:  Solving for p, Initial residual = 4.96446e-05, Final residual = 1.66688e-06, No Iterations 10
time step continuity errors : sum local = 2.70872e-09, global = -5.85644e-21, cumulative = -2.13902e-18
DICPCG:  Solving for p, Initial residual = 3.92872e-05, Final residual = 6.80745e-07, No Iterations 10
time step continuity errors : sum local = 1.06186e-09, global = -1.38669e-19, cumulative = -2.27769e-18
ExecutionTime = 0.52 s  ClockTime = 1 s

Time = 0.106

[...]
DICPCG:  Solving for p, Initial residual = 8.65833e-07, Final residual = 8.65833e-07, No Iterations 0
time step continuity errors : sum local = 1.08203e-09, global = -5.84982e-20, cumulative = 1.17621e-17
ExecutionTime = 21.07 s  ClockTime = 56 s

Time = 4.974

Courant Number mean: 0.0444251 max: 0.170424
smoothSolver:  Solving for Ux, Initial residual = 2.46965e-09, Final residual = 2.46965e-09, No Iterations 0
smoothSolver:  Solving for Uy, Initial residual = 4.03746e-09, Final residual = 4.03746e-09, No Iterations 0
DICPCG:  Solving for p, Initial residual = 9.44494e-07, Final residual = 9.44494e-07, No Iterations 0
time step continuity errors : sum local = 1.18032e-09, global = -6.67369e-20, cumulative = 1.16954e-17
DICPCG:  Solving for p, Initial residual = 9.72685e-07, Final residual = 9.72685e-07, No Iterations 0
time step continuity errors : sum local = 1.21555e-09, global = -4.84397e-20, cumulative = 1.1647e-17
ExecutionTime = 21.07 s  ClockTime = 56 s

Time = 4.975

Courant Number mean: 0.0444251 max: 0.170424
smoothSolver:  Solving for Ux, Initial residual = 1.66548e-09, Final residual = 1.66548e-09, No Iterations 0
smoothSolver:  Solving for Uy, Initial residual = 2.73786e-09, Final residual = 2.73786e-09, No Iterations 0
DICPCG:  Solving for p, Initial residual = 1.02405e-06, Final residual = 4.99704e-08, No Iterations 1
time step continuity errors : sum local = 6.25242e-11, global = 3.79941e-19, cumulative = 1.20269e-17
DICPCG:  Solving for p, Initial residual = 2.81939e-07, Final residual = 2.81939e-07, No Iterations 0
time step continuity errors : sum local = 3.52393e-10, global = -2.60297e-19, cumulative = 1.17666e-17
ExecutionTime = 21.08 s  ClockTime = 56 s

Time = 4.976

Courant Number mean: 0.0444251 max: 0.170424
smoothSolver:  Solving for Ux, Initial residual = 1.51619e-08, Final residual = 1.51619e-08, No Iterations 0
smoothSolver:  Solving for Uy, Initial residual = 2.46907e-08, Final residual = 2.46907e-08, No Iterations 0
DICPCG:  Solving for p, Initial residual = 8.47314e-07, Final residual = 8.47314e-07, No Iterations 0
time step continuity errors : sum local = 1.05889e-09, global = 1.70912e-19, cumulative = 1.19375e-17
DICPCG:  Solving for p, Initial residual = 1.0224e-06, Final residual = 5.03193e-08, No Iterations 1
time step continuity errors : sum local = 6.29589e-11, global = 1.30215e-19, cumulative = 1.20677e-17
ExecutionTime = 21.09 s  ClockTime = 56 s

Time = 4.977

Courant Number mean: 0.0444251 max: 0.170424
smoothSolver:  Solving for Ux, Initial residual = 8.6147e-09, Final residual = 8.6147e-09, No Iterations 0
smoothSolver:  Solving for Uy, Initial residual = 1.40426e-08, Final residual = 1.40426e-08, No Iterations 0
DICPCG:  Solving for p, Initial residual = 3.44823e-07, Final residual = 3.44823e-07, No Iterations 0
time step continuity errors : sum local = 4.30972e-10, global = 1.54683e-20, cumulative = 1.20832e-17
DICPCG:  Solving for p, Initial residual = 4.4276e-07, Final residual = 4.4276e-07, No Iterations 0
time step continuity errors : sum local = 5.53354e-10, global = -4.43203e-20, cumulative = 1.20389e-17
ExecutionTime = 21.09 s  ClockTime = 56 s

Time = 4.978

Courant Number mean: 0.0444251 max: 0.170424
smoothSolver:  Solving for Ux, Initial residual = 5.62112e-09, Final residual = 5.62112e-09, No Iterations 0
smoothSolver:  Solving for Uy, Initial residual = 9.16202e-09, Final residual = 9.16202e-09, No Iterations 0
DICPCG:  Solving for p, Initial residual = 6.39161e-07, Final residual = 6.39161e-07, No Iterations 0
time step continuity errors : sum local = 7.98778e-10, global = 2.58312e-19, cumulative = 1.22972e-17
DICPCG:  Solving for p, Initial residual = 7.03673e-07, Final residual = 7.03673e-07, No Iterations 0
time step continuity errors : sum local = 8.79393e-10, global = -8.22383e-20, cumulative = 1.22149e-17
ExecutionTime = 21.09 s  ClockTime = 56 s

Time = 4.979

Courant Number mean: 0.0444251 max: 0.170424
smoothSolver:  Solving for Ux, Initial residual = 3.72651e-09, Final residual = 3.72651e-09, No Iterations 0
smoothSolver:  Solving for Uy, Initial residual = 6.06701e-09, Final residual = 6.06701e-09, No Iterations 0
DICPCG:  Solving for p, Initial residual = 8.26726e-07, Final residual = 8.26726e-07, No Iterations 0
time step continuity errors : sum local = 1.03316e-09, global = -2.91333e-20, cumulative = 1.21858e-17
DICPCG:  Solving for p, Initial residual = 8.69565e-07, Final residual = 8.69565e-07, No Iterations 0
time step continuity errors : sum local = 1.08669e-09, global = 2.51463e-20, cumulative = 1.2211e-17
ExecutionTime = 21.09 s  ClockTime = 56 s

Time = 4.98

Courant Number mean: 0.0444251 max: 0.170424
smoothSolver:  Solving for Ux, Initial residual = 2.49766e-09, Final residual = 2.49766e-09, No Iterations 0
smoothSolver:  Solving for Uy, Initial residual = 4.07522e-09, Final residual = 4.07522e-09, No Iterations 0
DICPCG:  Solving for p, Initial residual = 9.48986e-07, Final residual = 9.48986e-07, No Iterations 0
time step continuity errors : sum local = 1.18594e-09, global = -6.40238e-20, cumulative = 1.21469e-17
DICPCG:  Solving for p, Initial residual = 9.77625e-07, Final residual = 9.77625e-07, No Iterations 0
time step continuity errors : sum local = 1.22172e-09, global = 5.20793e-20, cumulative = 1.2199e-17
ExecutionTime = 21.1 s  ClockTime = 56 s

Time = 4.981

Courant Number mean: 0.0444251 max: 0.170424
smoothSolver:  Solving for Ux, Initial residual = 1.69339e-09, Final residual = 1.69339e-09, No Iterations 0
smoothSolver:  Solving for Uy, Initial residual = 2.77932e-09, Final residual = 2.77932e-09, No Iterations 0
DICPCG:  Solving for p, Initial residual = 1.02998e-06, Final residual = 5.18905e-08, No Iterations 1
time step continuity errors : sum local = 6.4927e-11, global = 6.52315e-20, cumulative = 1.22642e-17
DICPCG:  Solving for p, Initial residual = 2.87805e-07, Final residual = 2.87805e-07, No Iterations 0
time step continuity errors : sum local = 3.5972e-10, global = 1.81897e-19, cumulative = 1.24461e-17
ExecutionTime = 21.11 s  ClockTime = 56 s

Time = 4.982

Courant Number mean: 0.0444251 max: 0.170424
smoothSolver:  Solving for Ux, Initial residual = 1.54775e-08, Final residual = 1.54775e-08, No Iterations 0
smoothSolver:  Solving for Uy, Initial residual = 2.51883e-08, Final residual = 2.51883e-08, No Iterations 0
DICPCG:  Solving for p, Initial residual = 8.61048e-07, Final residual = 8.61048e-07, No Iterations 0
time step continuity errors : sum local = 1.07603e-09, global = -3.13336e-20, cumulative = 1.24148e-17
DICPCG:  Solving for p, Initial residual = 1.04102e-06, Final residual = 5.26042e-08, No Iterations 1
time step continuity errors : sum local = 6.58047e-11, global = -1.35856e-19, cumulative = 1.2279e-17
ExecutionTime = 21.11 s  ClockTime = 56 s

Time = 4.983

Courant Number mean: 0.0444251 max: 0.170424
smoothSolver:  Solving for Ux, Initial residual = 8.92415e-09, Final residual = 8.92415e-09, No Iterations 0
smoothSolver:  Solving for Uy, Initial residual = 1.45201e-08, Final residual = 1.45201e-08, No Iterations 0
DICPCG:  Solving for p, Initial residual = 3.55266e-07, Final residual = 3.55266e-07, No Iterations 0
time step continuity errors : sum local = 4.44015e-10, global = -2.00873e-19, cumulative = 1.20781e-17
DICPCG:  Solving for p, Initial residual = 4.5618e-07, Final residual = 4.5618e-07, No Iterations 0
time step continuity errors : sum local = 5.70117e-10, global = 9.32233e-20, cumulative = 1.21713e-17
ExecutionTime = 21.11 s  ClockTime = 56 s

Time = 4.984

Courant Number mean: 0.0444251 max: 0.170424
smoothSolver:  Solving for Ux, Initial residual = 5.84107e-09, Final residual = 5.84107e-09, No Iterations 0
smoothSolver:  Solving for Uy, Initial residual = 9.50697e-09, Final residual = 9.50697e-09, No Iterations 0
DICPCG:  Solving for p, Initial residual = 6.59004e-07, Final residual = 6.59004e-07, No Iterations 0
time step continuity errors : sum local = 8.23567e-10, global = -4.10612e-20, cumulative = 1.21302e-17
DICPCG:  Solving for p, Initial residual = 7.26554e-07, Final residual = 7.26554e-07, No Iterations 0
time step continuity errors : sum local = 9.07977e-10, global = -9.75742e-20, cumulative = 1.20327e-17
ExecutionTime = 21.11 s  ClockTime = 56 s

Time = 4.985

Courant Number mean: 0.0444251 max: 0.170424
smoothSolver:  Solving for Ux, Initial residual = 3.87411e-09, Final residual = 3.87411e-09, No Iterations 0
smoothSolver:  Solving for Uy, Initial residual = 6.31091e-09, Final residual = 6.31091e-09, No Iterations 0
DICPCG:  Solving for p, Initial residual = 8.55149e-07, Final residual = 8.55149e-07, No Iterations 0
time step continuity errors : sum local = 1.06867e-09, global = -1.93064e-20, cumulative = 1.20134e-17
DICPCG:  Solving for p, Initial residual = 9.00341e-07, Final residual = 9.00341e-07, No Iterations 0
time step continuity errors : sum local = 1.12514e-09, global = 1.36617e-19, cumulative = 1.215e-17
ExecutionTime = 21.13 s  ClockTime = 56 s

Time = 4.986

Courant Number mean: 0.0444251 max: 0.170424
smoothSolver:  Solving for Ux, Initial residual = 2.60919e-09, Final residual = 2.60919e-09, No Iterations 0
smoothSolver:  Solving for Uy, Initial residual = 4.26449e-09, Final residual = 4.26449e-09, No Iterations 0
DICPCG:  Solving for p, Initial residual = 9.83644e-07, Final residual = 9.83644e-07, No Iterations 0
time step continuity errors : sum local = 1.22924e-09, global = -4.54453e-20, cumulative = 1.21045e-17
DICPCG:  Solving for p, Initial residual = 1.01382e-06, Final residual = 5.15197e-08, No Iterations 1
time step continuity errors : sum local = 6.4473e-11, global = 2.73152e-19, cumulative = 1.23777e-17
ExecutionTime = 21.13 s  ClockTime = 56 s

Time = 4.987

Courant Number mean: 0.0444251 max: 0.170424
smoothSolver:  Solving for Ux, Initial residual = 1.69513e-08, Final residual = 1.69513e-08, No Iterations 0
smoothSolver:  Solving for Uy, Initial residual = 2.75382e-08, Final residual = 2.75382e-08, No Iterations 0
DICPCG:  Solving for p, Initial residual = 6.32461e-07, Final residual = 6.32461e-07, No Iterations 0
time step continuity errors : sum local = 7.90377e-10, global = 6.19724e-20, cumulative = 1.24397e-17
DICPCG:  Solving for p, Initial residual = 8.28979e-07, Final residual = 8.28979e-07, No Iterations 0
time step continuity errors : sum local = 1.03594e-09, global = 1.06442e-19, cumulative = 1.25461e-17
ExecutionTime = 21.13 s  ClockTime = 56 s

Time = 4.988

Courant Number mean: 0.0444251 max: 0.170424
smoothSolver:  Solving for Ux, Initial residual = 1.1189e-08, Final residual = 1.1189e-08, No Iterations 0
smoothSolver:  Solving for Uy, Initial residual = 1.82296e-08, Final residual = 1.82296e-08, No Iterations 0
DICPCG:  Solving for p, Initial residual = 1.2111e-06, Final residual = 6.19753e-08, No Iterations 1
time step continuity errors : sum local = 7.75004e-11, global = 1.44988e-19, cumulative = 1.26911e-17
DICPCG:  Solving for p, Initial residual = 2.36432e-07, Final residual = 2.36432e-07, No Iterations 0
time step continuity errors : sum local = 2.95508e-10, global = -2.18574e-19, cumulative = 1.24725e-17
ExecutionTime = 21.13 s  ClockTime = 56 s

Time = 4.989

Courant Number mean: 0.0444251 max: 0.170424
smoothSolver:  Solving for Ux, Initial residual = 1.22087e-08, Final residual = 1.22087e-08, No Iterations 0
smoothSolver:  Solving for Uy, Initial residual = 1.98322e-08, Final residual = 1.98322e-08, No Iterations 0
DICPCG:  Solving for p, Initial residual = 7.08833e-07, Final residual = 7.08833e-07, No Iterations 0
time step continuity errors : sum local = 8.85823e-10, global = -6.10625e-20, cumulative = 1.24114e-17
DICPCG:  Solving for p, Initial residual = 8.50251e-07, Final residual = 8.50251e-07, No Iterations 0
time step continuity errors : sum local = 1.06254e-09, global = 1.39099e-19, cumulative = 1.25505e-17
ExecutionTime = 21.14 s  ClockTime = 56 s

Time = 4.99

Courant Number mean: 0.0444251 max: 0.170424
smoothSolver:  Solving for Ux, Initial residual = 8.03595e-09, Final residual = 8.03595e-09, No Iterations 0
smoothSolver:  Solving for Uy, Initial residual = 1.31023e-08, Final residual = 1.31023e-08, No Iterations 0
DICPCG:  Solving for p, Initial residual = 1.13605e-06, Final residual = 5.75829e-08, No Iterations 1
time step continuity errors : sum local = 7.20543e-11, global = 2.20394e-19, cumulative = 1.27709e-17
DICPCG:  Solving for p, Initial residual = 2.45517e-07, Final residual = 2.45517e-07, No Iterations 0
time step continuity errors : sum local = 3.06877e-10, global = -1.24309e-19, cumulative = 1.26466e-17
ExecutionTime = 21.14 s  ClockTime = 56 s

Time = 4.991

Courant Number mean: 0.0444251 max: 0.170424
smoothSolver:  Solving for Ux, Initial residual = 1.29258e-08, Final residual = 1.29258e-08, No Iterations 0
smoothSolver:  Solving for Uy, Initial residual = 2.09383e-08, Final residual = 2.09383e-08, No Iterations 0
DICPCG:  Solving for p, Initial residual = 7.35151e-07, Final residual = 7.35151e-07, No Iterations 0
time step continuity errors : sum local = 9.18677e-10, global = 3.37655e-20, cumulative = 1.26804e-17
DICPCG:  Solving for p, Initial residual = 8.8471e-07, Final residual = 8.8471e-07, No Iterations 0
time step continuity errors : sum local = 1.10556e-09, global = -2.6579e-19, cumulative = 1.24146e-17
ExecutionTime = 21.15 s  ClockTime = 56 s

Time = 4.992

Courant Number mean: 0.0444251 max: 0.170424
smoothSolver:  Solving for Ux, Initial residual = 8.50247e-09, Final residual = 8.50247e-09, No Iterations 0
smoothSolver:  Solving for Uy, Initial residual = 1.38374e-08, Final residual = 1.38374e-08, No Iterations 0
DICPCG:  Solving for p, Initial residual = 1.18318e-06, Final residual = 5.92907e-08, No Iterations 1
time step continuity errors : sum local = 7.41353e-11, global = 3.76533e-20, cumulative = 1.24523e-17
DICPCG:  Solving for p, Initial residual = 2.53679e-07, Final residual = 2.53679e-07, No Iterations 0
time step continuity errors : sum local = 3.17053e-10, global = 2.9977e-20, cumulative = 1.24822e-17
ExecutionTime = 21.15 s  ClockTime = 56 s

Time = 4.993

Courant Number mean: 0.0444251 max: 0.170424
smoothSolver:  Solving for Ux, Initial residual = 1.33447e-08, Final residual = 1.33447e-08, No Iterations 0
smoothSolver:  Solving for Uy, Initial residual = 2.16054e-08, Final residual = 2.16054e-08, No Iterations 0
DICPCG:  Solving for p, Initial residual = 7.61954e-07, Final residual = 7.61954e-07, No Iterations 0
time step continuity errors : sum local = 9.52196e-10, global = 1.69407e-20, cumulative = 1.24992e-17
DICPCG:  Solving for p, Initial residual = 9.15908e-07, Final residual = 9.15908e-07, No Iterations 0
time step continuity errors : sum local = 1.14458e-09, global = 1.30198e-19, cumulative = 1.26294e-17
ExecutionTime = 21.15 s  ClockTime = 56 s

Time = 4.994

Courant Number mean: 0.0444251 max: 0.170424
smoothSolver:  Solving for Ux, Initial residual = 8.77974e-09, Final residual = 8.77974e-09, No Iterations 0
smoothSolver:  Solving for Uy, Initial residual = 1.42765e-08, Final residual = 1.42765e-08, No Iterations 0
DICPCG:  Solving for p, Initial residual = 1.22524e-06, Final residual = 6.10216e-08, No Iterations 1
time step continuity errors : sum local = 7.63614e-11, global = -8.76481e-20, cumulative = 1.25417e-17
DICPCG:  Solving for p, Initial residual = 2.62801e-07, Final residual = 2.62801e-07, No Iterations 0
time step continuity errors : sum local = 3.28479e-10, global = -2.00839e-20, cumulative = 1.25216e-17
ExecutionTime = 21.16 s  ClockTime = 56 s

Time = 4.995

Courant Number mean: 0.0444251 max: 0.170424
smoothSolver:  Solving for Ux, Initial residual = 1.38125e-08, Final residual = 1.38125e-08, No Iterations 0
smoothSolver:  Solving for Uy, Initial residual = 2.23599e-08, Final residual = 2.23599e-08, No Iterations 0
DICPCG:  Solving for p, Initial residual = 7.89817e-07, Final residual = 7.89817e-07, No Iterations 0
time step continuity errors : sum local = 9.86976e-10, global = -6.06323e-20, cumulative = 1.2461e-17
DICPCG:  Solving for p, Initial residual = 9.49336e-07, Final residual = 9.49336e-07, No Iterations 0
time step continuity errors : sum local = 1.1863e-09, global = -8.95671e-20, cumulative = 1.23714e-17
ExecutionTime = 21.17 s  ClockTime = 56 s

Time = 4.996

Courant Number mean: 0.0444251 max: 0.170424
smoothSolver:  Solving for Ux, Initial residual = 9.09145e-09, Final residual = 9.09145e-09, No Iterations 0
smoothSolver:  Solving for Uy, Initial residual = 1.47874e-08, Final residual = 1.47874e-08, No Iterations 0
DICPCG:  Solving for p, Initial residual = 1.26929e-06, Final residual = 6.31373e-08, No Iterations 1
time step continuity errors : sum local = 7.89334e-11, global = 4.3609e-20, cumulative = 1.24151e-17
DICPCG:  Solving for p, Initial residual = 2.72191e-07, Final residual = 2.72191e-07, No Iterations 0
time step continuity errors : sum local = 3.4018e-10, global = 7.53065e-20, cumulative = 1.24904e-17
ExecutionTime = 21.17 s  ClockTime = 56 s

Time = 4.997

Courant Number mean: 0.0444251 max: 0.170424
smoothSolver:  Solving for Ux, Initial residual = 1.42813e-08, Final residual = 1.42813e-08, No Iterations 0
smoothSolver:  Solving for Uy, Initial residual = 2.31055e-08, Final residual = 2.31055e-08, No Iterations 0
DICPCG:  Solving for p, Initial residual = 8.18507e-07, Final residual = 8.18507e-07, No Iterations 0
time step continuity errors : sum local = 1.02286e-09, global = -3.83481e-20, cumulative = 1.2452e-17
DICPCG:  Solving for p, Initial residual = 9.83425e-07, Final residual = 9.83425e-07, No Iterations 0
time step continuity errors : sum local = 1.22894e-09, global = -3.0025e-19, cumulative = 1.21518e-17
ExecutionTime = 21.17 s  ClockTime = 56 s

Time = 4.998

Courant Number mean: 0.0444251 max: 0.170424
smoothSolver:  Solving for Ux, Initial residual = 9.39948e-09, Final residual = 9.39948e-09, No Iterations 0
smoothSolver:  Solving for Uy, Initial residual = 1.52842e-08, Final residual = 1.52842e-08, No Iterations 0
DICPCG:  Solving for p, Initial residual = 1.3146e-06, Final residual = 6.52222e-08, No Iterations 1
time step continuity errors : sum local = 8.16169e-11, global = -3.4907e-20, cumulative = 1.21169e-17
DICPCG:  Solving for p, Initial residual = 2.8176e-07, Final residual = 2.8176e-07, No Iterations 0
time step continuity errors : sum local = 3.52169e-10, global = 2.56889e-19, cumulative = 1.23737e-17
ExecutionTime = 21.18 s  ClockTime = 56 s

Time = 4.999

Courant Number mean: 0.0444251 max: 0.170424
smoothSolver:  Solving for Ux, Initial residual = 1.47593e-08, Final residual = 1.47593e-08, No Iterations 0
smoothSolver:  Solving for Uy, Initial residual = 2.38725e-08, Final residual = 2.38725e-08, No Iterations 0
DICPCG:  Solving for p, Initial residual = 8.47609e-07, Final residual = 8.47609e-07, No Iterations 0
time step continuity errors : sum local = 1.05917e-09, global = -1.56106e-19, cumulative = 1.22176e-17
DICPCG:  Solving for p, Initial residual = 1.01821e-06, Final residual = 4.9726e-08, No Iterations 1
time step continuity errors : sum local = 6.21786e-11, global = -1.28991e-19, cumulative = 1.20887e-17
ExecutionTime = 21.18 s  ClockTime = 56 s

Time = 5

Courant Number mean: 0.0444251 max: 0.170424
smoothSolver:  Solving for Ux, Initial residual = 8.65026e-09, Final residual = 8.65026e-09, No Iterations 0
smoothSolver:  Solving for Uy, Initial residual = 1.40021e-08, Final residual = 1.40021e-08, No Iterations 0
DICPCG:  Solving for p, Initial residual = 3.42503e-07, Final residual = 3.42503e-07, No Iterations 0
time step continuity errors : sum local = 4.28047e-10, global = -1.14002e-19, cumulative = 1.19746e-17
DICPCG:  Solving for p, Initial residual = 4.40308e-07, Final residual = 4.40308e-07, No Iterations 0
time step continuity errors : sum local = 5.50265e-10, global = -3.44273e-20, cumulative = 1.19402e-17
ExecutionTime = 21.18 s  ClockTime = 56 s

End


real	0m55.904s
user	0m12.286s
sys	0m8.923s
