rm: cannot remove '0.*': No such file or directory
rm: cannot remove '[1-9]*': No such file or directory
/*---------------------------------------------------------------------------*\
| =========                 |                                                 |
| \\      /  F ield         | OpenFOAM: The Open Source CFD Toolbox           |
|  \\    /   O peration     | Version:  2212                                  |
|   \\  /    A nd           | Website:  www.openfoam.com                      |
|    \\/     M anipulation  |                                                 |
\*---------------------------------------------------------------------------*/
Build  : _f8e05934-20230403 OPENFOAM=2212 patch=230110 version=2212
Arch   : "LSB;label=32;scalar=64"
Exec   : blockMesh
Date   : Jun 11 2023
Time   : 14:08:41
Host   : r1i2n30
PID    : 605676
I/O    : uncollated
Case   : /mnt/cases/cavity_nu0.0001_U1
nProcs : 1
trapFpe: Floating point exception trapping enabled (FOAM_SIGFPE).
fileModificationChecking : Monitoring run-time modified files using timeStampMaster (fileModificationSkew 5, maxFileModificationPolls 20)
allowSystemOperations : Allowing user-supplied system call operations

// * * * * * * * * * * * * * * * * * * * * * * * * * * * * * * * * * * * * * //
Create time

Creating block mesh from "system/blockMeshDict"
Creating block edges
No non-planar block faces defined
Creating topology blocks

Creating topology patches - from boundary section

Creating block mesh topology - scaling/transform applied later

Check topology

	Basic statistics
		Number of internal faces : 0
		Number of boundary faces : 6
		Number of defined boundary faces : 6
		Number of undefined boundary faces : 0
	Checking patch -> block consistency

Creating block offsets
Creating merge list (topological search)...

Creating polyMesh from blockMesh
Creating patches
Creating cells
Creating points with scale (0.1 0.1 0.1)
    Block 0 cell size :
        i : 0.005 .. 0.005
        j : 0.005 .. 0.005
        k : 0.01 .. 0.01

No patch pairs to merge

Writing polyMesh with 0 cellZones
----------------
Mesh Information
----------------
  boundingBox: (0 0 0) (0.1 0.1 0.01)
  nPoints: 882
  nCells: 400
  nFaces: 1640
  nInternalFaces: 760
----------------
Patches
----------------
  patch 0 (start: 760 size: 20) name: movingWall
  patch 1 (start: 780 size: 60) name: fixedWalls
  patch 2 (start: 840 size: 800) name: frontAndBack

End


real	0m0.377s
user	0m0.023s
sys	0m0.269s
/*---------------------------------------------------------------------------*\
| =========                 |                                                 |
| \\      /  F ield         | OpenFOAM: The Open Source CFD Toolbox           |
|  \\    /   O peration     | Version:  2212                                  |
|   \\  /    A nd           | Website:  www.openfoam.com                      |
|    \\/     M anipulation  |                                                 |
\*---------------------------------------------------------------------------*/
Build  : _f8e05934-20230403 OPENFOAM=2212 patch=230110 version=2212
Arch   : "LSB;label=32;scalar=64"
Exec   : icoFoam
Date   : Jun 11 2023
Time   : 14:08:41
Host   : r1i2n30
PID    : 605690
I/O    : uncollated
Case   : /mnt/cases/cavity_nu0.0001_U1
nProcs : 1
trapFpe: Floating point exception trapping enabled (FOAM_SIGFPE).
fileModificationChecking : Monitoring run-time modified files using timeStampMaster (fileModificationSkew 5, maxFileModificationPolls 20)
allowSystemOperations : Allowing user-supplied system call operations

// * * * * * * * * * * * * * * * * * * * * * * * * * * * * * * * * * * * * * //
Create time

Create mesh for time = 0


PISO: Operating solver in PISO mode

Reading transportProperties

Reading field p

Reading field U

Reading/calculating face flux field phi


Starting time loop

Time = 0.001

Courant Number mean: 0 max: 0
smoothSolver:  Solving for Ux, Initial residual = 1, Final residual = 2.31183e-09, No Iterations 2
smoothSolver:  Solving for Uy, Initial residual = 0, Final residual = 0, No Iterations 0
DICPCG:  Solving for p, Initial residual = 1, Final residual = 0.0289636, No Iterations 23
time step continuity errors : sum local = 2.30888e-07, global = 8.80947e-22, cumulative = 8.80947e-22
DICPCG:  Solving for p, Initial residual = 0.0187568, Final residual = 9.62552e-07, No Iterations 29
time step continuity errors : sum local = 1.72402e-11, global = 6.97675e-22, cumulative = 1.57862e-21
ExecutionTime = 0.02 s  ClockTime = 0 s

Time = 0.002

Courant Number mean: 0.000170809 max: 0.00142222
smoothSolver:  Solving for Ux, Initial residual = 0.325179, Final residual = 7.15541e-10, No Iterations 2
smoothSolver:  Solving for Uy, Initial residual = 0.332707, Final residual = 1.06543e-09, No Iterations 2
DICPCG:  Solving for p, Initial residual = 0.104708, Final residual = 0.00466576, No Iterations 2
time step continuity errors : sum local = 9.09072e-08, global = 5.33531e-22, cumulative = 2.11215e-21
DICPCG:  Solving for p, Initial residual = 0.00402587, Final residual = 6.75896e-07, No Iterations 27
time step continuity errors : sum local = 1.45224e-11, global = -1.41241e-21, cumulative = 6.99743e-22
ExecutionTime = 0.02 s  ClockTime = 0 s

Time = 0.003

Courant Number mean: 0.000339682 max: 0.00282804
smoothSolver:  Solving for Ux, Initial residual = 0.193268, Final residual = 8.22817e-06, No Iterations 1
smoothSolver:  Solving for Uy, Initial residual = 0.199845, Final residual = 6.33758e-10, No Iterations 2
DICPCG:  Solving for p, Initial residual = 0.0619639, Final residual = 0.00265599, No Iterations 5
time step continuity errors : sum local = 6.08345e-08, global = 1.28446e-21, cumulative = 1.9842e-21
DICPCG:  Solving for p, Initial residual = 0.00256704, Final residual = 9.75521e-07, No Iterations 26
time step continuity errors : sum local = 2.38e-11, global = 1.41344e-21, cumulative = 3.39764e-21
ExecutionTime = 0.02 s  ClockTime = 0 s

Time = 0.004

Courant Number mean: 0.000506666 max: 0.00421768
smoothSolver:  Solving for Ux, Initial residual = 0.137099, Final residual = 5.70195e-06, No Iterations 1
smoothSolver:  Solving for Uy, Initial residual = 0.142616, Final residual = 7.7794e-06, No Iterations 1
DICPCG:  Solving for p, Initial residual = 0.0425743, Final residual = 0.00179578, No Iterations 6
time step continuity errors : sum local = 4.57368e-08, global = -4.9393e-21, cumulative = -1.54166e-21
DICPCG:  Solving for p, Initial residual = 0.00175526, Final residual = 7.01036e-07, No Iterations 26
time step continuity errors : sum local = 1.85529e-11, global = -1.32607e-21, cumulative = -2.86773e-21
ExecutionTime = 0.03 s  ClockTime = 0 s

Time = 0.005

Courant Number mean: 0.000671797 max: 0.00559135
smoothSolver:  Solving for Ux, Initial residual = 0.105987, Final residual = 4.26249e-06, No Iterations 1
smoothSolver:  Solving for Uy, Initial residual = 0.110666, Final residual = 5.99855e-06, No Iterations 1
DICPCG:  Solving for p, Initial residual = 0.0319343, Final residual = 0.00159228, No Iterations 6
time step continuity errors : sum local = 4.36579e-08, global = -1.0058e-21, cumulative = -3.87353e-21
DICPCG:  Solving for p, Initial residual = 0.00156763, Final residual = 5.89149e-07, No Iterations 26
time step continuity errors : sum local = 1.66197e-11, global = -1.16322e-21, cumulative = -5.03675e-21
ExecutionTime = 0.04 s  ClockTime = 0 s

Time = 0.006

Courant Number mean: 0.000835106 max: 0.00694927
smoothSolver:  Solving for Ux, Initial residual = 0.0862191, Final residual = 3.31714e-06, No Iterations 1
smoothSolver:  Solving for Uy, Initial residual = 0.0902624, Final residual = 4.85865e-06, No Iterations 1
DICPCG:  Solving for p, Initial residual = 0.0253441, Final residual = 0.00113825, No Iterations 7
time step continuity errors : sum local = 3.32899e-08, global = -4.47815e-21, cumulative = -9.5149e-21
DICPCG:  Solving for p, Initial residual = 0.00112241, Final residual = 5.25579e-07, No Iterations 25
time step continuity errors : sum local = 1.56135e-11, global = -1.99764e-21, cumulative = -1.15125e-20
ExecutionTime = 0.04 s  ClockTime = 0 s

Time = 0.007

Courant Number mean: 0.000996618 max: 0.00829164
smoothSolver:  Solving for Ux, Initial residual = 0.0725455, Final residual = 2.63876e-06, No Iterations 1
smoothSolver:  Solving for Uy, Initial residual = 0.0761027, Final residual = 4.06492e-06, No Iterations 1
DICPCG:  Solving for p, Initial residual = 0.0209259, Final residual = 0.000784816, No Iterations 8
time step continuity errors : sum local = 2.44429e-08, global = -4.06456e-21, cumulative = -1.55771e-20
DICPCG:  Solving for p, Initial residual = 0.000791423, Final residual = 5.59752e-07, No Iterations 25
time step continuity errors : sum local = 1.74809e-11, global = 4.13901e-21, cumulative = -1.14381e-20
ExecutionTime = 0.05 s  ClockTime = 0 s

Time = 0.008

Courant Number mean: 0.00115636 max: 0.00961865
smoothSolver:  Solving for Ux, Initial residual = 0.0625225, Final residual = 2.12486e-06, No Iterations 1
smoothSolver:  Solving for Uy, Initial residual = 0.0657023, Final residual = 3.4795e-06, No Iterations 1
DICPCG:  Solving for p, Initial residual = 0.0177484, Final residual = 0.000748294, No Iterations 8
time step continuity errors : sum local = 2.42149e-08, global = 5.77062e-21, cumulative = -5.66748e-21
DICPCG:  Solving for p, Initial residual = 0.000760394, Final residual = 8.23409e-07, No Iterations 24
time step continuity errors : sum local = 2.64906e-11, global = 6.32586e-21, cumulative = 6.58384e-22
ExecutionTime = 0.05 s  ClockTime = 0 s

Time = 0.009

Courant Number mean: 0.00131436 max: 0.0109305
smoothSolver:  Solving for Ux, Initial residual = 0.0548593, Final residual = 1.71816e-06, No Iterations 1
smoothSolver:  Solving for Uy, Initial residual = 0.0577407, Final residual = 3.02922e-06, No Iterations 1
DICPCG:  Solving for p, Initial residual = 0.0153593, Final residual = 0.000721288, No Iterations 8
time step continuity errors : sum local = 2.41178e-08, global = 5.53591e-21, cumulative = 6.19429e-21
DICPCG:  Solving for p, Initial residual = 0.000736394, Final residual = 6.61978e-07, No Iterations 24
time step continuity errors : sum local = 2.19167e-11, global = -4.44299e-21, cumulative = 1.7513e-21
ExecutionTime = 0.05 s  ClockTime = 0 s

Time = 0.01

Courant Number mean: 0.00147063 max: 0.0122274
smoothSolver:  Solving for Ux, Initial residual = 0.0488098, Final residual = 1.56802e-06, No Iterations 1
smoothSolver:  Solving for Uy, Initial residual = 0.0514509, Final residual = 2.67161e-06, No Iterations 1
DICPCG:  Solving for p, Initial residual = 0.0135606, Final residual = 0.000521512, No Iterations 9
time step continuity errors : sum local = 1.84792e-08, global = 7.84271e-21, cumulative = 9.594e-21
DICPCG:  Solving for p, Initial residual = 0.0005327, Final residual = 6.80272e-07, No Iterations 24
time step continuity errors : sum local = 2.32042e-11, global = -6.55541e-22, cumulative = 8.93846e-21
ExecutionTime = 0.05 s  ClockTime = 0 s

Time = 0.011

Courant Number mean: 0.00162521 max: 0.0135094
smoothSolver:  Solving for Ux, Initial residual = 0.0439129, Final residual = 1.53106e-06, No Iterations 1
smoothSolver:  Solving for Uy, Initial residual = 0.046357, Final residual = 2.38037e-06, No Iterations 1
DICPCG:  Solving for p, Initial residual = 0.0123007, Final residual = 0.000496179, No Iterations 9
time step continuity errors : sum local = 1.80193e-08, global = 2.69351e-21, cumulative = 1.1632e-20
DICPCG:  Solving for p, Initial residual = 0.00050544, Final residual = 6.055e-07, No Iterations 24
time step continuity errors : sum local = 2.10808e-11, global = 7.19751e-21, cumulative = 1.88295e-20
ExecutionTime = 0.06 s  ClockTime = 0 s

Time = 0.012

Courant Number mean: 0.00177811 max: 0.0147769
smoothSolver:  Solving for Ux, Initial residual = 0.0398674, Final residual = 1.52347e-06, No Iterations 1
smoothSolver:  Solving for Uy, Initial residual = 0.0421482, Final residual = 2.13861e-06, No Iterations 1
DICPCG:  Solving for p, Initial residual = 0.0113161, Final residual = 0.000484578, No Iterations 9
time step continuity errors : sum local = 1.79886e-08, global = -6.77875e-21, cumulative = 1.20507e-20
DICPCG:  Solving for p, Initial residual = 0.000497049, Final residual = 5.50078e-07, No Iterations 24
time step continuity errors : sum local = 1.9521e-11, global = 4.69115e-21, cumulative = 1.67419e-20
ExecutionTime = 0.06 s  ClockTime = 0 s

Time = 0.013

Courant Number mean: 0.00192937 max: 0.01603
smoothSolver:  Solving for Ux, Initial residual = 0.0364691, Final residual = 1.53693e-06, No Iterations 1
smoothSolver:  Solving for Uy, Initial residual = 0.0386129, Final residual = 1.94438e-06, No Iterations 1
DICPCG:  Solving for p, Initial residual = 0.0105051, Final residual = 0.00047881, No Iterations 9
time step continuity errors : sum local = 1.81259e-08, global = 1.13737e-20, cumulative = 2.81156e-20
DICPCG:  Solving for p, Initial residual = 0.000491996, Final residual = 5.06435e-07, No Iterations 24
time step continuity errors : sum local = 1.82796e-11, global = 1.36071e-21, cumulative = 2.94763e-20
ExecutionTime = 0.07 s  ClockTime = 0 s

Time = 0.014

Courant Number mean: 0.00207899 max: 0.0172688
smoothSolver:  Solving for Ux, Initial residual = 0.0335743, Final residual = 1.55818e-06, No Iterations 1
smoothSolver:  Solving for Uy, Initial residual = 0.0356021, Final residual = 1.77895e-06, No Iterations 1
DICPCG:  Solving for p, Initial residual = 0.00982884, Final residual = 0.000475954, No Iterations 9
time step continuity errors : sum local = 1.83365e-08, global = -3.66027e-21, cumulative = 2.5816e-20
DICPCG:  Solving for p, Initial residual = 0.000490078, Final residual = 4.64097e-07, No Iterations 24
time step continuity errors : sum local = 1.7009e-11, global = -8.6854e-23, cumulative = 2.57292e-20
ExecutionTime = 0.08 s  ClockTime = 0 s

Time = 0.015

Courant Number mean: 0.00222701 max: 0.0184935
smoothSolver:  Solving for Ux, Initial residual = 0.0310788, Final residual = 1.5842e-06, No Iterations 1
smoothSolver:  Solving for Uy, Initial residual = 0.033007, Final residual = 1.63742e-06, No Iterations 1
DICPCG:  Solving for p, Initial residual = 0.00925928, Final residual = 0.000367491, No Iterations 10
time step continuity errors : sum local = 1.49193e-08, global = -1.12559e-20, cumulative = 1.44733e-20
DICPCG:  Solving for p, Initial residual = 0.000381577, Final residual = 8.37224e-07, No Iterations 23
time step continuity errors : sum local = 3.12316e-11, global = -1.32142e-21, cumulative = 1.31519e-20
ExecutionTime = 0.08 s  ClockTime = 0 s

Time = 0.016

Courant Number mean: 0.00237344 max: 0.0197044
smoothSolver:  Solving for Ux, Initial residual = 0.0289054, Final residual = 1.61257e-06, No Iterations 1
smoothSolver:  Solving for Uy, Initial residual = 0.0307473, Final residual = 1.51521e-06, No Iterations 1
DICPCG:  Solving for p, Initial residual = 0.0089571, Final residual = 0.000364547, No Iterations 10
time step continuity errors : sum local = 1.50162e-08, global = 9.79589e-21, cumulative = 2.29478e-20
DICPCG:  Solving for p, Initial residual = 0.000379411, Final residual = 9.01141e-07, No Iterations 23
time step continuity errors : sum local = 3.41277e-11, global = -1.2964e-20, cumulative = 9.98378e-21
ExecutionTime = 0.08 s  ClockTime = 0 s

Time = 0.017

Courant Number mean: 0.00251831 max: 0.0209014
smoothSolver:  Solving for Ux, Initial residual = 0.0269954, Final residual = 1.64251e-06, No Iterations 1
smoothSolver:  Solving for Uy, Initial residual = 0.0287622, Final residual = 1.40772e-06, No Iterations 1
DICPCG:  Solving for p, Initial residual = 0.00878226, Final residual = 0.000361949, No Iterations 10
time step continuity errors : sum local = 1.51078e-08, global = -2.03176e-20, cumulative = -1.03338e-20
DICPCG:  Solving for p, Initial residual = 0.000376504, Final residual = 9.70732e-07, No Iterations 23
time step continuity errors : sum local = 3.72712e-11, global = 5.73029e-21, cumulative = -4.60355e-21
ExecutionTime = 0.09 s  ClockTime = 0 s

Time = 0.018

Courant Number mean: 0.00266163 max: 0.022085
smoothSolver:  Solving for Ux, Initial residual = 0.0253038, Final residual = 1.67342e-06, No Iterations 1
smoothSolver:  Solving for Uy, Initial residual = 0.0270055, Final residual = 1.31497e-06, No Iterations 1
DICPCG:  Solving for p, Initial residual = 0.00864369, Final residual = 0.000359639, No Iterations 10
time step continuity errors : sum local = 1.52023e-08, global = -2.3616e-21, cumulative = -6.96515e-21
DICPCG:  Solving for p, Initial residual = 0.000374056, Final residual = 4.354e-07, No Iterations 24
time step continuity errors : sum local = 1.69147e-11, global = 2.98199e-21, cumulative = -3.98317e-21
ExecutionTime = 0.09 s  ClockTime = 0 s

Time = 0.019

Courant Number mean: 0.00280342 max: 0.0232551
smoothSolver:  Solving for Ux, Initial residual = 0.0237952, Final residual = 1.70485e-06, No Iterations 1
smoothSolver:  Solving for Uy, Initial residual = 0.0254393, Final residual = 1.23621e-06, No Iterations 1
DICPCG:  Solving for p, Initial residual = 0.00852664, Final residual = 0.000357227, No Iterations 10
time step continuity errors : sum local = 1.52874e-08, global = -1.94015e-20, cumulative = -2.33847e-20
DICPCG:  Solving for p, Initial residual = 0.000373634, Final residual = 4.38522e-07, No Iterations 24
time step continuity errors : sum local = 1.72579e-11, global = 1.84379e-20, cumulative = -4.94683e-21
ExecutionTime = 0.1 s  ClockTime = 0 s

Time = 0.02

Courant Number mean: 0.00294371 max: 0.0244119
smoothSolver:  Solving for Ux, Initial residual = 0.0224414, Final residual = 1.73644e-06, No Iterations 1
smoothSolver:  Solving for Uy, Initial residual = 0.0240347, Final residual = 1.16689e-06, No Iterations 1
DICPCG:  Solving for p, Initial residual = 0.00842982, Final residual = 0.000357986, No Iterations 10
time step continuity errors : sum local = 1.54885e-08, global = -1.20127e-20, cumulative = -1.69596e-20
DICPCG:  Solving for p, Initial residual = 0.000376265, Final residual = 4.37667e-07, No Iterations 24
time step continuity errors : sum local = 1.74384e-11, global = -2.12379e-21, cumulative = -1.90833e-20
ExecutionTime = 0.1 s  ClockTime = 0 s

Time = 0.021

Courant Number mean: 0.00308251 max: 0.0255556
smoothSolver:  Solving for Ux, Initial residual = 0.0212198, Final residual = 1.76792e-06, No Iterations 1
smoothSolver:  Solving for Uy, Initial residual = 0.0227683, Final residual = 1.10517e-06, No Iterations 1
DICPCG:  Solving for p, Initial residual = 0.00834926, Final residual = 0.000416151, No Iterations 9
time step continuity errors : sum local = 1.77047e-08, global = 4.83487e-21, cumulative = -1.42485e-20
DICPCG:  Solving for p, Initial residual = 0.000447674, Final residual = 6.61996e-07, No Iterations 21
time step continuity errors : sum local = 2.76343e-11, global = -2.48154e-21, cumulative = -1.673e-20
ExecutionTime = 0.1 s  ClockTime = 0 s

Time = 0.022

Courant Number mean: 0.00321984 max: 0.0266864
smoothSolver:  Solving for Ux, Initial residual = 0.0201187, Final residual = 1.79908e-06, No Iterations 1
smoothSolver:  Solving for Uy, Initial residual = 0.0216208, Final residual = 1.04937e-06, No Iterations 1
DICPCG:  Solving for p, Initial residual = 0.00829298, Final residual = 0.000409302, No Iterations 9
time step continuity errors : sum local = 1.76186e-08, global = -9.95925e-21, cumulative = -2.66893e-20
DICPCG:  Solving for p, Initial residual = 0.000443133, Final residual = 9.05167e-07, No Iterations 23
time step continuity errors : sum local = 3.68955e-11, global = -9.54566e-21, cumulative = -3.62349e-20
ExecutionTime = 0.11 s  ClockTime = 0 s

Time = 0.023

Courant Number mean: 0.00335571 max: 0.0278044
smoothSolver:  Solving for Ux, Initial residual = 0.0191181, Final residual = 1.82992e-06, No Iterations 1
smoothSolver:  Solving for Uy, Initial residual = 0.0205761, Final residual = 9.98701e-07, No Iterations 1
DICPCG:  Solving for p, Initial residual = 0.00827731, Final residual = 0.000403349, No Iterations 9
time step continuity errors : sum local = 1.75603e-08, global = -2.41557e-20, cumulative = -6.03907e-20
DICPCG:  Solving for p, Initial residual = 0.000438446, Final residual = 9.63839e-07, No Iterations 23
time step continuity errors : sum local = 3.96601e-11, global = 6.67535e-21, cumulative = -5.37153e-20
ExecutionTime = 0.11 s  ClockTime = 0 s

Time = 0.024

Courant Number mean: 0.00349015 max: 0.0289097
smoothSolver:  Solving for Ux, Initial residual = 0.0182028, Final residual = 1.86018e-06, No Iterations 1
smoothSolver:  Solving for Uy, Initial residual = 0.0196214, Final residual = 9.53608e-07, No Iterations 1
DICPCG:  Solving for p, Initial residual = 0.00830138, Final residual = 0.00039812, No Iterations 9
time step continuity errors : sum local = 1.75238e-08, global = -1.06437e-20, cumulative = -6.43591e-20
DICPCG:  Solving for p, Initial residual = 0.000434509, Final residual = 9.79425e-07, No Iterations 23
time step continuity errors : sum local = 4.07184e-11, global = -1.53711e-20, cumulative = -7.97302e-20
ExecutionTime = 0.12 s  ClockTime = 0 s

Time = 0.025

Courant Number mean: 0.00362316 max: 0.0300025
smoothSolver:  Solving for Ux, Initial residual = 0.0173622, Final residual = 1.8897e-06, No Iterations 1
smoothSolver:  Solving for Uy, Initial residual = 0.0187451, Final residual = 9.16534e-07, No Iterations 1
DICPCG:  Solving for p, Initial residual = 0.00835291, Final residual = 0.00039337, No Iterations 9
time step continuity errors : sum local = 1.75003e-08, global = -2.12978e-20, cumulative = -1.01028e-19
DICPCG:  Solving for p, Initial residual = 0.000430904, Final residual = 9.68837e-07, No Iterations 23
time step continuity errors : sum local = 4.07144e-11, global = -7.33192e-21, cumulative = -1.0836e-19
ExecutionTime = 0.12 s  ClockTime = 0 s

Time = 0.026

Courant Number mean: 0.00375477 max: 0.0310836
smoothSolver:  Solving for Ux, Initial residual = 0.0165876, Final residual = 1.91838e-06, No Iterations 1
smoothSolver:  Solving for Uy, Initial residual = 0.0179387, Final residual = 8.85832e-07, No Iterations 1
DICPCG:  Solving for p, Initial residual = 0.00837749, Final residual = 0.000388049, No Iterations 9
time step continuity errors : sum local = 1.74462e-08, global = -6.86556e-22, cumulative = -1.09046e-19
DICPCG:  Solving for p, Initial residual = 0.000427, Final residual = 9.3144e-07, No Iterations 23
time step continuity errors : sum local = 3.95845e-11, global = -2.77602e-20, cumulative = -1.36807e-19
ExecutionTime = 0.13 s  ClockTime = 0 s

Time = 0.027

Courant Number mean: 0.003885 max: 0.0321549
smoothSolver:  Solving for Ux, Initial residual = 0.0158714, Final residual = 1.94618e-06, No Iterations 1
smoothSolver:  Solving for Uy, Initial residual = 0.0171943, Final residual = 8.57919e-07, No Iterations 1
DICPCG:  Solving for p, Initial residual = 0.00853158, Final residual = 0.000384815, No Iterations 9
time step continuity errors : sum local = 1.74753e-08, global = -1.7681e-21, cumulative = -1.38575e-19
DICPCG:  Solving for p, Initial residual = 0.000425565, Final residual = 9.19714e-07, No Iterations 23
time step continuity errors : sum local = 3.94886e-11, global = -1.68455e-20, cumulative = -1.5542e-19
ExecutionTime = 0.13 s  ClockTime = 0 s

Time = 0.028

Courant Number mean: 0.00401385 max: 0.0332146
smoothSolver:  Solving for Ux, Initial residual = 0.0152076, Final residual = 1.97304e-06, No Iterations 1
smoothSolver:  Solving for Uy, Initial residual = 0.0165037, Final residual = 8.32307e-07, No Iterations 1
DICPCG:  Solving for p, Initial residual = 0.00853142, Final residual = 0.000378932, No Iterations 9
time step continuity errors : sum local = 1.7397e-08, global = 2.55495e-20, cumulative = -1.29871e-19
DICPCG:  Solving for p, Initial residual = 0.000420348, Final residual = 9.76936e-07, No Iterations 23
time step continuity errors : sum local = 4.23471e-11, global = 5.70755e-22, cumulative = -1.293e-19
ExecutionTime = 0.13 s  ClockTime = 0 s

Time = 0.029

Courant Number mean: 0.00414134 max: 0.0342627
smoothSolver:  Solving for Ux, Initial residual = 0.0145992, Final residual = 1.99894e-06, No Iterations 1
smoothSolver:  Solving for Uy, Initial residual = 0.0158638, Final residual = 8.08906e-07, No Iterations 1
DICPCG:  Solving for p, Initial residual = 0.00862069, Final residual = 0.000374773, No Iterations 9
time step continuity errors : sum local = 1.74078e-08, global = -1.27075e-20, cumulative = -1.42008e-19
DICPCG:  Solving for p, Initial residual = 0.000417001, Final residual = 3.27579e-07, No Iterations 24
time step continuity errors : sum local = 1.43858e-11, global = -3.8772e-20, cumulative = -1.8078e-19
ExecutionTime = 0.14 s  ClockTime = 0 s

Time = 0.03

Courant Number mean: 0.00426748 max: 0.0352992
smoothSolver:  Solving for Ux, Initial residual = 0.014038, Final residual = 2.02385e-06, No Iterations 1
smoothSolver:  Solving for Uy, Initial residual = 0.0152686, Final residual = 7.8739e-07, No Iterations 1
DICPCG:  Solving for p, Initial residual = 0.00881107, Final residual = 0.000371911, No Iterations 9
time step continuity errors : sum local = 1.74876e-08, global = -7.17166e-21, cumulative = -1.87951e-19
DICPCG:  Solving for p, Initial residual = 0.000415133, Final residual = 3.31706e-07, No Iterations 24
time step continuity errors : sum local = 1.47517e-11, global = -2.58391e-20, cumulative = -2.1379e-19
ExecutionTime = 0.15 s  ClockTime = 0 s

Time = 0.031

Courant Number mean: 0.0043923 max: 0.0363241
smoothSolver:  Solving for Ux, Initial residual = 0.0135178, Final residual = 2.04775e-06, No Iterations 1
smoothSolver:  Solving for Uy, Initial residual = 0.0147131, Final residual = 7.67553e-07, No Iterations 1
DICPCG:  Solving for p, Initial residual = 0.0087833, Final residual = 0.000366513, No Iterations 9
time step continuity errors : sum local = 1.74406e-08, global = 1.10759e-20, cumulative = -2.02714e-19
DICPCG:  Solving for p, Initial residual = 0.000410595, Final residual = 3.31259e-07, No Iterations 24
time step continuity errors : sum local = 1.49081e-11, global = 5.478e-21, cumulative = -1.97236e-19
ExecutionTime = 0.15 s  ClockTime = 0 s

Time = 0.032

Courant Number mean: 0.00451581 max: 0.0373378
smoothSolver:  Solving for Ux, Initial residual = 0.0130322, Final residual = 2.07064e-06, No Iterations 1
smoothSolver:  Solving for Uy, Initial residual = 0.0141932, Final residual = 7.49193e-07, No Iterations 1
DICPCG:  Solving for p, Initial residual = 0.00899178, Final residual = 0.000364167, No Iterations 9
time step continuity errors : sum local = 1.75231e-08, global = 1.70192e-20, cumulative = -1.80217e-19
DICPCG:  Solving for p, Initial residual = 0.000409317, Final residual = 3.32154e-07, No Iterations 24
time step continuity errors : sum local = 1.51199e-11, global = -3.07753e-20, cumulative = -2.10992e-19
ExecutionTime = 0.16 s  ClockTime = 0 s

Time = 0.033

Courant Number mean: 0.00463802 max: 0.0383405
smoothSolver:  Solving for Ux, Initial residual = 0.0125787, Final residual = 2.0925e-06, No Iterations 1
smoothSolver:  Solving for Uy, Initial residual = 0.0137058, Final residual = 7.32202e-07, No Iterations 1
DICPCG:  Solving for p, Initial residual = 0.00889902, Final residual = 0.000358797, No Iterations 9
time step continuity errors : sum local = 1.74764e-08, global = 1.69407e-20, cumulative = -1.94052e-19
DICPCG:  Solving for p, Initial residual = 0.000405172, Final residual = 3.3192e-07, No Iterations 24
time step continuity errors : sum local = 1.52858e-11, global = -2.01418e-21, cumulative = -1.96066e-19
ExecutionTime = 0.16 s  ClockTime = 0 s

Time = 0.034

Courant Number mean: 0.00475893 max: 0.039332
smoothSolver:  Solving for Ux, Initial residual = 0.0121558, Final residual = 2.11334e-06, No Iterations 1
smoothSolver:  Solving for Uy, Initial residual = 0.0132491, Final residual = 7.16419e-07, No Iterations 1
DICPCG:  Solving for p, Initial residual = 0.0089787, Final residual = 0.000355357, No Iterations 9
time step continuity errors : sum local = 1.75128e-08, global = -2.84385e-20, cumulative = -2.24504e-19
DICPCG:  Solving for p, Initial residual = 0.000402738, Final residual = 3.31581e-07, No Iterations 24
time step continuity errors : sum local = 1.54491e-11, global = 1.0286e-20, cumulative = -2.14218e-19
ExecutionTime = 0.16 s  ClockTime = 0 s

Time = 0.035

Courant Number mean: 0.00487856 max: 0.0403126
smoothSolver:  Solving for Ux, Initial residual = 0.0117571, Final residual = 2.13316e-06, No Iterations 1
smoothSolver:  Solving for Uy, Initial residual = 0.0128196, Final residual = 7.01756e-07, No Iterations 1
DICPCG:  Solving for p, Initial residual = 0.00905004, Final residual = 0.00035202, No Iterations 9
time step continuity errors : sum local = 1.75519e-08, global = -2.65608e-20, cumulative = -2.40779e-19
DICPCG:  Solving for p, Initial residual = 0.000400339, Final residual = 3.30877e-07, No Iterations 24
time step continuity errors : sum local = 1.55963e-11, global = 5.8399e-21, cumulative = -2.34939e-19
ExecutionTime = 0.17 s  ClockTime = 0 s

Time = 0.036

Courant Number mean: 0.00499691 max: 0.0412823
smoothSolver:  Solving for Ux, Initial residual = 0.0113814, Final residual = 2.15195e-06, No Iterations 1
smoothSolver:  Solving for Uy, Initial residual = 0.012416, Final residual = 6.89085e-07, No Iterations 1
DICPCG:  Solving for p, Initial residual = 0.00912673, Final residual = 0.00034875, No Iterations 9
time step continuity errors : sum local = 1.75926e-08, global = -6.02622e-20, cumulative = -2.95201e-19
DICPCG:  Solving for p, Initial residual = 0.000397981, Final residual = 3.29691e-07, No Iterations 24
time step continuity errors : sum local = 1.57237e-11, global = -6.25287e-20, cumulative = -3.5773e-19
ExecutionTime = 0.18 s  ClockTime = 0 s

Time = 0.037

Courant Number mean: 0.00511403 max: 0.0422413
smoothSolver:  Solving for Ux, Initial residual = 0.0110295, Final residual = 2.16974e-06, No Iterations 1
smoothSolver:  Solving for Uy, Initial residual = 0.0120357, Final residual = 6.79104e-07, No Iterations 1
DICPCG:  Solving for p, Initial residual = 0.0091848, Final residual = 0.000345326, No Iterations 9
time step continuity errors : sum local = 1.76296e-08, global = -1.94884e-20, cumulative = -3.77218e-19
DICPCG:  Solving for p, Initial residual = 0.000395937, Final residual = 3.28752e-07, No Iterations 24
time step continuity errors : sum local = 1.5866e-11, global = -1.62955e-21, cumulative = -3.78848e-19
ExecutionTime = 0.18 s  ClockTime = 0 s

Time = 0.038

Courant Number mean: 0.00522991 max: 0.0431896
smoothSolver:  Solving for Ux, Initial residual = 0.0107004, Final residual = 2.18692e-06, No Iterations 1
smoothSolver:  Solving for Uy, Initial residual = 0.011677, Final residual = 6.70378e-07, No Iterations 1
DICPCG:  Solving for p, Initial residual = 0.00921029, Final residual = 0.000342093, No Iterations 9
time step continuity errors : sum local = 1.7672e-08, global = 2.5928e-20, cumulative = -3.5292e-19
DICPCG:  Solving for p, Initial residual = 0.000393805, Final residual = 3.26674e-07, No Iterations 24
time step continuity errors : sum local = 1.59536e-11, global = 3.94979e-21, cumulative = -3.4897e-19
ExecutionTime = 0.18 s  ClockTime = 0 s

Time = 0.039

Courant Number mean: 0.00534455 max: 0.0441274
smoothSolver:  Solving for Ux, Initial residual = 0.01039, Final residual = 2.20375e-06, No Iterations 1
smoothSolver:  Solving for Uy, Initial residual = 0.0113386, Final residual = 6.63349e-07, No Iterations 1
DICPCG:  Solving for p, Initial residual = 0.00924615, Final residual = 0.000338878, No Iterations 9
time step continuity errors : sum local = 1.77144e-08, global = -2.63126e-20, cumulative = -3.75283e-19
DICPCG:  Solving for p, Initial residual = 0.000391766, Final residual = 3.24324e-07, No Iterations 24
time step continuity errors : sum local = 1.60274e-11, global = -1.30074e-20, cumulative = -3.8829e-19
ExecutionTime = 0.18 s  ClockTime = 0 s

Time = 0.04

Courant Number mean: 0.00545796 max: 0.0450547
smoothSolver:  Solving for Ux, Initial residual = 0.0100965, Final residual = 2.2198e-06, No Iterations 1
smoothSolver:  Solving for Uy, Initial residual = 0.0110182, Final residual = 6.56952e-07, No Iterations 1
DICPCG:  Solving for p, Initial residual = 0.00927616, Final residual = 0.000335649, No Iterations 9
time step continuity errors : sum local = 1.77545e-08, global = -3.42618e-20, cumulative = -4.22552e-19
DICPCG:  Solving for p, Initial residual = 0.000389723, Final residual = 9.89983e-07, No Iterations 23
time step continuity errors : sum local = 4.95635e-11, global = 1.30446e-20, cumulative = -4.09507e-19
ExecutionTime = 0.2 s  ClockTime = 0 s

Time = 0.041

Courant Number mean: 0.00557016 max: 0.0459717
smoothSolver:  Solving for Ux, Initial residual = 0.00981927, Final residual = 2.23491e-06, No Iterations 1
smoothSolver:  Solving for Uy, Initial residual = 0.0107147, Final residual = 6.5114e-07, No Iterations 1
DICPCG:  Solving for p, Initial residual = 0.00929854, Final residual = 0.000332405, No Iterations 9
time step continuity errors : sum local = 1.7792e-08, global = 1.7652e-20, cumulative = -3.91855e-19
DICPCG:  Solving for p, Initial residual = 0.000387713, Final residual = 9.76974e-07, No Iterations 23
time step continuity errors : sum local = 4.95076e-11, global = 1.75859e-20, cumulative = -3.7427e-19
ExecutionTime = 0.2 s  ClockTime = 0 s

Time = 0.042

Courant Number mean: 0.00568115 max: 0.0468785
smoothSolver:  Solving for Ux, Initial residual = 0.00955513, Final residual = 2.24905e-06, No Iterations 1
smoothSolver:  Solving for Uy, Initial residual = 0.0104262, Final residual = 6.45957e-07, No Iterations 1
DICPCG:  Solving for p, Initial residual = 0.00931488, Final residual = 0.000329233, No Iterations 9
time step continuity errors : sum local = 1.78312e-08, global = -3.63959e-22, cumulative = -3.74634e-19
DICPCG:  Solving for p, Initial residual = 0.000385654, Final residual = 9.6323e-07, No Iterations 23
time step continuity errors : sum local = 4.94044e-11, global = -1.18659e-20, cumulative = -3.86499e-19
ExecutionTime = 0.2 s  ClockTime = 0 s

Time = 0.043

Courant Number mean: 0.00579098 max: 0.047775
smoothSolver:  Solving for Ux, Initial residual = 0.00930314, Final residual = 2.26221e-06, No Iterations 1
smoothSolver:  Solving for Uy, Initial residual = 0.0101522, Final residual = 6.4128e-07, No Iterations 1
DICPCG:  Solving for p, Initial residual = 0.00932687, Final residual = 0.000326134, No Iterations 9
time step continuity errors : sum local = 1.78724e-08, global = 6.31966e-20, cumulative = -3.23303e-19
DICPCG:  Solving for p, Initial residual = 0.000383621, Final residual = 9.48875e-07, No Iterations 23
time step continuity errors : sum local = 4.92584e-11, global = -5.22861e-20, cumulative = -3.75589e-19
ExecutionTime = 0.21 s  ClockTime = 0 s

Time = 0.044

Courant Number mean: 0.00589962 max: 0.0486616
smoothSolver:  Solving for Ux, Initial residual = 0.00906246, Final residual = 2.27442e-06, No Iterations 1
smoothSolver:  Solving for Uy, Initial residual = 0.00989119, Final residual = 6.37057e-07, No Iterations 1
DICPCG:  Solving for p, Initial residual = 0.00934615, Final residual = 0.000322944, No Iterations 9
time step continuity errors : sum local = 1.79063e-08, global = 3.34512e-20, cumulative = -3.42138e-19
DICPCG:  Solving for p, Initial residual = 0.000381385, Final residual = 9.31746e-07, No Iterations 23
time step continuity errors : sum local = 4.89541e-11, global = -1.55593e-20, cumulative = -3.57697e-19
ExecutionTime = 0.21 s  ClockTime = 0 s

Time = 0.045

Courant Number mean: 0.00600709 max: 0.0495383
smoothSolver:  Solving for Ux, Initial residual = 0.00883264, Final residual = 2.28569e-06, No Iterations 1
smoothSolver:  Solving for Uy, Initial residual = 0.00964361, Final residual = 6.3327e-07, No Iterations 1
DICPCG:  Solving for p, Initial residual = 0.00944252, Final residual = 0.000320315, No Iterations 9
time step continuity errors : sum local = 1.7968e-08, global = -5.23605e-21, cumulative = -3.62933e-19
DICPCG:  Solving for p, Initial residual = 0.000379364, Final residual = 9.11491e-07, No Iterations 23
time step continuity errors : sum local = 4.84686e-11, global = 2.14447e-20, cumulative = -3.41488e-19
ExecutionTime = 0.21 s  ClockTime = 0 s

Time = 0.046

Courant Number mean: 0.00611339 max: 0.0504074
smoothSolver:  Solving for Ux, Initial residual = 0.00861297, Final residual = 2.29591e-06, No Iterations 1
smoothSolver:  Solving for Uy, Initial residual = 0.0094084, Final residual = 6.30048e-07, No Iterations 1
DICPCG:  Solving for p, Initial residual = 0.00943171, Final residual = 0.000318358, No Iterations 9
time step continuity errors : sum local = 1.80619e-08, global = 3.05064e-20, cumulative = -3.10982e-19
DICPCG:  Solving for p, Initial residual = 0.000380973, Final residual = 9.10126e-07, No Iterations 23
time step continuity errors : sum local = 4.89731e-11, global = 1.62417e-20, cumulative = -2.9474e-19
ExecutionTime = 0.22 s  ClockTime = 0 s

Time = 0.047

Courant Number mean: 0.00621855 max: 0.0512724
smoothSolver:  Solving for Ux, Initial residual = 0.00840172, Final residual = 2.30502e-06, No Iterations 1
smoothSolver:  Solving for Uy, Initial residual = 0.00918157, Final residual = 6.26662e-07, No Iterations 1
DICPCG:  Solving for p, Initial residual = 0.00955872, Final residual = 0.000476574, No Iterations 8
time step continuity errors : sum local = 2.65103e-08, global = 3.44645e-20, cumulative = -2.60276e-19
DICPCG:  Solving for p, Initial residual = 0.000489601, Final residual = 5.49604e-07, No Iterations 24
time step continuity errors : sum local = 3.00904e-11, global = 3.80462e-20, cumulative = -2.2223e-19
ExecutionTime = 0.23 s  ClockTime = 0 s

Time = 0.048

Courant Number mean: 0.00632262 max: 0.0521286
smoothSolver:  Solving for Ux, Initial residual = 0.00819865, Final residual = 2.31312e-06, No Iterations 1
smoothSolver:  Solving for Uy, Initial residual = 0.00896387, Final residual = 6.24573e-07, No Iterations 1
DICPCG:  Solving for p, Initial residual = 0.00937446, Final residual = 0.000310322, No Iterations 9
time step continuity errors : sum local = 1.80362e-08, global = -2.67965e-20, cumulative = -2.49026e-19
DICPCG:  Solving for p, Initial residual = 0.000373788, Final residual = 8.83273e-07, No Iterations 23
time step continuity errors : sum local = 4.8684e-11, global = 4.30134e-20, cumulative = -2.06013e-19
ExecutionTime = 0.23 s  ClockTime = 0 s

Time = 0.049

Courant Number mean: 0.00642554 max: 0.0529755
smoothSolver:  Solving for Ux, Initial residual = 0.0080037, Final residual = 2.32035e-06, No Iterations 1
smoothSolver:  Solving for Uy, Initial residual = 0.0087575, Final residual = 6.24198e-07, No Iterations 1
DICPCG:  Solving for p, Initial residual = 0.00927092, Final residual = 0.000308258, No Iterations 9
time step continuity errors : sum local = 1.8112e-08, global = 1.40703e-20, cumulative = -1.91942e-19
DICPCG:  Solving for p, Initial residual = 0.000372879, Final residual = 8.50423e-07, No Iterations 23
time step continuity errors : sum local = 4.74295e-11, global = 2.18955e-20, cumulative = -1.70047e-19
ExecutionTime = 0.23 s  ClockTime = 0 s

Time = 0.05

Courant Number mean: 0.00652732 max: 0.0538131
smoothSolver:  Solving for Ux, Initial residual = 0.00781629, Final residual = 2.32691e-06, No Iterations 1
smoothSolver:  Solving for Uy, Initial residual = 0.00856096, Final residual = 6.24389e-07, No Iterations 1
DICPCG:  Solving for p, Initial residual = 0.00925736, Final residual = 0.000460916, No Iterations 8
time step continuity errors : sum local = 2.65589e-08, global = 1.56254e-20, cumulative = -1.54422e-19
DICPCG:  Solving for p, Initial residual = 0.000472421, Final residual = 9.70003e-07, No Iterations 23
time step continuity errors : sum local = 5.51276e-11, global = -2.83516e-20, cumulative = -1.82773e-19
ExecutionTime = 0.23 s  ClockTime = 0 s

Time = 0.051

Courant Number mean: 0.00662797 max: 0.0546416
smoothSolver:  Solving for Ux, Initial residual = 0.00763599, Final residual = 2.33282e-06, No Iterations 1
smoothSolver:  Solving for Uy, Initial residual = 0.00837548, Final residual = 6.24907e-07, No Iterations 1
DICPCG:  Solving for p, Initial residual = 0.00924398, Final residual = 0.000455421, No Iterations 8
time step continuity errors : sum local = 2.65481e-08, global = -2.32024e-20, cumulative = -2.05976e-19
DICPCG:  Solving for p, Initial residual = 0.000466979, Final residual = 9.69309e-07, No Iterations 23
time step continuity errors : sum local = 5.57436e-11, global = -5.12604e-20, cumulative = -2.57236e-19
ExecutionTime = 0.24 s  ClockTime = 0 s

Time = 0.052

Courant Number mean: 0.0067275 max: 0.0554609
smoothSolver:  Solving for Ux, Initial residual = 0.0074624, Final residual = 2.33789e-06, No Iterations 1
smoothSolver:  Solving for Uy, Initial residual = 0.00819731, Final residual = 6.25752e-07, No Iterations 1
DICPCG:  Solving for p, Initial residual = 0.00926285, Final residual = 0.000449687, No Iterations 8
time step continuity errors : sum local = 2.65288e-08, global = 5.3684e-21, cumulative = -2.51868e-19
DICPCG:  Solving for p, Initial residual = 0.000460979, Final residual = 9.40991e-07, No Iterations 23
time step continuity errors : sum local = 5.48171e-11, global = -5.36799e-20, cumulative = -3.05547e-19
ExecutionTime = 0.25 s  ClockTime = 0 s

Time = 0.053

Courant Number mean: 0.00682596 max: 0.0562712
smoothSolver:  Solving for Ux, Initial residual = 0.00729511, Final residual = 2.34214e-06, No Iterations 1
smoothSolver:  Solving for Uy, Initial residual = 0.00802863, Final residual = 6.26866e-07, No Iterations 1
DICPCG:  Solving for p, Initial residual = 0.00925818, Final residual = 0.000445493, No Iterations 8
time step continuity errors : sum local = 2.66228e-08, global = -1.72095e-20, cumulative = -3.22757e-19
DICPCG:  Solving for p, Initial residual = 0.000456964, Final residual = 9.1854e-07, No Iterations 23
time step continuity errors : sum local = 5.41984e-11, global = -2.59859e-20, cumulative = -3.48743e-19
ExecutionTime = 0.25 s  ClockTime = 0 s

Time = 0.054

Courant Number mean: 0.00692332 max: 0.0570725
smoothSolver:  Solving for Ux, Initial residual = 0.00713377, Final residual = 2.34559e-06, No Iterations 1
smoothSolver:  Solving for Uy, Initial residual = 0.0078671, Final residual = 6.28924e-07, No Iterations 1
DICPCG:  Solving for p, Initial residual = 0.00928227, Final residual = 0.000440051, No Iterations 8
time step continuity errors : sum local = 2.66329e-08, global = 3.159e-20, cumulative = -3.17153e-19
DICPCG:  Solving for p, Initial residual = 0.000452164, Final residual = 8.95554e-07, No Iterations 23
time step continuity errors : sum local = 5.35467e-11, global = 4.27528e-20, cumulative = -2.744e-19
ExecutionTime = 0.25 s  ClockTime = 0 s

Time = 0.055

Courant Number mean: 0.00701959 max: 0.0578648
smoothSolver:  Solving for Ux, Initial residual = 0.00697861, Final residual = 2.34839e-06, No Iterations 1
smoothSolver:  Solving for Uy, Initial residual = 0.00771191, Final residual = 6.31189e-07, No Iterations 1
DICPCG:  Solving for p, Initial residual = 0.0090123, Final residual = 0.000432882, No Iterations 8
time step continuity errors : sum local = 2.65276e-08, global = 3.17679e-20, cumulative = -2.42632e-19
DICPCG:  Solving for p, Initial residual = 0.000443378, Final residual = 8.60986e-07, No Iterations 23
time step continuity errors : sum local = 5.21405e-11, global = 2.10642e-20, cumulative = -2.21568e-19
ExecutionTime = 0.26 s  ClockTime = 0 s

Time = 0.056

Courant Number mean: 0.00711483 max: 0.0586483
smoothSolver:  Solving for Ux, Initial residual = 0.00683075, Final residual = 2.35045e-06, No Iterations 1
smoothSolver:  Solving for Uy, Initial residual = 0.00756105, Final residual = 6.33785e-07, No Iterations 1
DICPCG:  Solving for p, Initial residual = 0.00941977, Final residual = 0.000426088, No Iterations 8
time step continuity errors : sum local = 2.64143e-08, global = -2.30411e-20, cumulative = -2.44609e-19
DICPCG:  Solving for p, Initial residual = 0.000436208, Final residual = 8.55635e-07, No Iterations 23
time step continuity errors : sum local = 5.24227e-11, global = -9.42986e-21, cumulative = -2.54039e-19
ExecutionTime = 0.27 s  ClockTime = 0 s

Time = 0.057

Courant Number mean: 0.007209 max: 0.0594235
smoothSolver:  Solving for Ux, Initial residual = 0.00668886, Final residual = 2.35174e-06, No Iterations 1
smoothSolver:  Solving for Uy, Initial residual = 0.0074134, Final residual = 6.36531e-07, No Iterations 1
DICPCG:  Solving for p, Initial residual = 0.00902237, Final residual = 0.000423966, No Iterations 8
time step continuity errors : sum local = 2.6595e-08, global = -4.90105e-21, cumulative = -2.5894e-19
DICPCG:  Solving for p, Initial residual = 0.000433966, Final residual = 8.03557e-07, No Iterations 23
time step continuity errors : sum local = 4.98605e-11, global = 2.62713e-20, cumulative = -2.32669e-19
ExecutionTime = 0.27 s  ClockTime = 0 s

Time = 0.058

Courant Number mean: 0.00730211 max: 0.0601902
smoothSolver:  Solving for Ux, Initial residual = 0.00655162, Final residual = 2.35231e-06, No Iterations 1
smoothSolver:  Solving for Uy, Initial residual = 0.00727493, Final residual = 6.39659e-07, No Iterations 1
DICPCG:  Solving for p, Initial residual = 0.00915232, Final residual = 0.000420338, No Iterations 8
time step continuity errors : sum local = 2.66779e-08, global = 3.41956e-20, cumulative = -1.98473e-19
DICPCG:  Solving for p, Initial residual = 0.000429778, Final residual = 7.69515e-07, No Iterations 23
time step continuity errors : sum local = 4.83737e-11, global = -1.13117e-20, cumulative = -2.09785e-19
ExecutionTime = 0.27 s  ClockTime = 0 s

Time = 0.059

Courant Number mean: 0.00739419 max: 0.0609491
smoothSolver:  Solving for Ux, Initial residual = 0.00641875, Final residual = 2.35232e-06, No Iterations 1
smoothSolver:  Solving for Uy, Initial residual = 0.00714249, Final residual = 6.43166e-07, No Iterations 1
DICPCG:  Solving for p, Initial residual = 0.00924987, Final residual = 0.000425453, No Iterations 8
time step continuity errors : sum local = 2.73545e-08, global = -5.88456e-20, cumulative = -2.6863e-19
DICPCG:  Solving for p, Initial residual = 0.000436676, Final residual = 7.72564e-07, No Iterations 23
time step continuity errors : sum local = 4.90927e-11, global = 4.62973e-20, cumulative = -2.22333e-19
ExecutionTime = 0.28 s  ClockTime = 0 s

Time = 0.06

Courant Number mean: 0.0074855 max: 0.0617111
smoothSolver:  Solving for Ux, Initial residual = 0.0062898, Final residual = 2.35169e-06, No Iterations 1
smoothSolver:  Solving for Uy, Initial residual = 0.00701241, Final residual = 6.46153e-07, No Iterations 1
DICPCG:  Solving for p, Initial residual = 0.00983404, Final residual = 0.000423642, No Iterations 8
time step continuity errors : sum local = 2.75393e-08, global = 4.95481e-21, cumulative = -2.17378e-19
DICPCG:  Solving for p, Initial residual = 0.00043793, Final residual = 7.61808e-07, No Iterations 23
time step continuity errors : sum local = 4.9068e-11, global = -7.0269e-21, cumulative = -2.24405e-19
ExecutionTime = 0.28 s  ClockTime = 0 s

Time = 0.061

Courant Number mean: 0.00757665 max: 0.0624661
smoothSolver:  Solving for Ux, Initial residual = 0.00616485, Final residual = 2.35044e-06, No Iterations 1
smoothSolver:  Solving for Uy, Initial residual = 0.00688388, Final residual = 6.4826e-07, No Iterations 1
DICPCG:  Solving for p, Initial residual = 0.00936395, Final residual = 0.000391586, No Iterations 8
time step continuity errors : sum local = 2.57798e-08, global = 4.07385e-20, cumulative = -1.83667e-19
DICPCG:  Solving for p, Initial residual = 0.000409551, Final residual = 7.65327e-07, No Iterations 23
time step continuity errors : sum local = 4.98835e-11, global = 6.62572e-21, cumulative = -1.77041e-19
ExecutionTime = 0.29 s  ClockTime = 0 s

Time = 0.062

Courant Number mean: 0.00766725 max: 0.0632131
smoothSolver:  Solving for Ux, Initial residual = 0.00604484, Final residual = 2.34834e-06, No Iterations 1
smoothSolver:  Solving for Uy, Initial residual = 0.00676648, Final residual = 6.5168e-07, No Iterations 1
DICPCG:  Solving for p, Initial residual = 0.00946949, Final residual = 0.000408155, No Iterations 8
time step continuity errors : sum local = 2.71918e-08, global = -2.61637e-20, cumulative = -2.03205e-19
DICPCG:  Solving for p, Initial residual = 0.000422523, Final residual = 6.51344e-07, No Iterations 23
time step continuity errors : sum local = 4.30217e-11, global = -1.98027e-20, cumulative = -2.23007e-19
ExecutionTime = 0.29 s  ClockTime = 0 s

Time = 0.063

Courant Number mean: 0.00775723 max: 0.063953
smoothSolver:  Solving for Ux, Initial residual = 0.00592623, Final residual = 2.34549e-06, No Iterations 1
smoothSolver:  Solving for Uy, Initial residual = 0.00664891, Final residual = 6.55157e-07, No Iterations 1
DICPCG:  Solving for p, Initial residual = 0.00951075, Final residual = 0.000390986, No Iterations 8
time step continuity errors : sum local = 2.63736e-08, global = 8.83429e-21, cumulative = -2.14173e-19
DICPCG:  Solving for p, Initial residual = 0.000409274, Final residual = 7.46006e-07, No Iterations 23
time step continuity errors : sum local = 4.98642e-11, global = 3.41894e-20, cumulative = -1.79984e-19
ExecutionTime = 0.29 s  ClockTime = 0 s

Time = 0.064

Courant Number mean: 0.00784652 max: 0.0646836
smoothSolver:  Solving for Ux, Initial residual = 0.00581252, Final residual = 2.34161e-06, No Iterations 1
smoothSolver:  Solving for Uy, Initial residual = 0.00654086, Final residual = 6.58958e-07, No Iterations 1
DICPCG:  Solving for p, Initial residual = 0.0097669, Final residual = 0.000415436, No Iterations 8
time step continuity errors : sum local = 2.83565e-08, global = -1.70895e-20, cumulative = -1.97073e-19
DICPCG:  Solving for p, Initial residual = 0.000431411, Final residual = 7.05638e-07, No Iterations 23
time step continuity errors : sum local = 4.77751e-11, global = 1.2507e-20, cumulative = -1.84566e-19
ExecutionTime = 0.3 s  ClockTime = 0 s

Time = 0.065

Courant Number mean: 0.00793522 max: 0.0654059
smoothSolver:  Solving for Ux, Initial residual = 0.0057013, Final residual = 2.3372e-06, No Iterations 1
smoothSolver:  Solving for Uy, Initial residual = 0.00643222, Final residual = 6.62566e-07, No Iterations 1
DICPCG:  Solving for p, Initial residual = 0.0102472, Final residual = 0.000389478, No Iterations 8
time step continuity errors : sum local = 2.69164e-08, global = -1.47817e-20, cumulative = -1.99348e-19
DICPCG:  Solving for p, Initial residual = 0.000407584, Final residual = 7.1134e-07, No Iterations 23
time step continuity errors : sum local = 4.84161e-11, global = 1.00296e-20, cumulative = -1.89318e-19
ExecutionTime = 0.3 s  ClockTime = 0 s

Time = 0.066

Courant Number mean: 0.00802308 max: 0.0661204
smoothSolver:  Solving for Ux, Initial residual = 0.00559441, Final residual = 2.33188e-06, No Iterations 1
smoothSolver:  Solving for Uy, Initial residual = 0.00633122, Final residual = 6.66442e-07, No Iterations 1
DICPCG:  Solving for p, Initial residual = 0.010685, Final residual = 0.000448378, No Iterations 8
time step continuity errors : sum local = 3.13673e-08, global = 7.52897e-20, cumulative = -1.14029e-19
DICPCG:  Solving for p, Initial residual = 0.000463784, Final residual = 4.72904e-07, No Iterations 24
time step continuity errors : sum local = 3.26601e-11, global = -2.65484e-20, cumulative = -1.40577e-19
ExecutionTime = 0.31 s  ClockTime = 0 s

Time = 0.067

Courant Number mean: 0.00811057 max: 0.0668276
smoothSolver:  Solving for Ux, Initial residual = 0.00548729, Final residual = 2.32651e-06, No Iterations 1
smoothSolver:  Solving for Uy, Initial residual = 0.00622595, Final residual = 6.70231e-07, No Iterations 1
DICPCG:  Solving for p, Initial residual = 0.0114256, Final residual = 0.000527287, No Iterations 7
time step continuity errors : sum local = 3.69339e-08, global = -1.57909e-20, cumulative = -1.56368e-19
DICPCG:  Solving for p, Initial residual = 0.00059876, Final residual = 7.98884e-07, No Iterations 24
time step continuity errors : sum local = 5.64926e-11, global = -9.08782e-20, cumulative = -2.47246e-19
ExecutionTime = 0.31 s  ClockTime = 1 s

Time = 0.068

Courant Number mean: 0.00819727 max: 0.0675273
smoothSolver:  Solving for Ux, Initial residual = 0.0053892, Final residual = 2.31943e-06, No Iterations 1
smoothSolver:  Solving for Uy, Initial residual = 0.00614645, Final residual = 6.76259e-07, No Iterations 1
DICPCG:  Solving for p, Initial residual = 0.00957274, Final residual = 0.000383024, No Iterations 8
time step continuity errors : sum local = 2.75074e-08, global = 6.11246e-20, cumulative = -1.86121e-19
DICPCG:  Solving for p, Initial residual = 0.000406404, Final residual = 6.24405e-07, No Iterations 23
time step continuity errors : sum local = 4.44777e-11, global = -4.38199e-20, cumulative = -2.29941e-19
ExecutionTime = 0.31 s  ClockTime = 1 s

Time = 0.069

Courant Number mean: 0.00828303 max: 0.0682187
smoothSolver:  Solving for Ux, Initial residual = 0.00528993, Final residual = 2.31246e-06, No Iterations 1
smoothSolver:  Solving for Uy, Initial residual = 0.00605291, Final residual = 6.79704e-07, No Iterations 1
DICPCG:  Solving for p, Initial residual = 0.0098104, Final residual = 0.000383055, No Iterations 8
time step continuity errors : sum local = 2.78598e-08, global = 2.19162e-20, cumulative = -2.08025e-19
DICPCG:  Solving for p, Initial residual = 0.000405703, Final residual = 6.20485e-07, No Iterations 23
time step continuity errors : sum local = 4.47192e-11, global = -2.48154e-23, cumulative = -2.0805e-19
ExecutionTime = 0.32 s  ClockTime = 1 s

Time = 0.07

Courant Number mean: 0.00836793 max: 0.0689168
smoothSolver:  Solving for Ux, Initial residual = 0.00519352, Final residual = 2.30477e-06, No Iterations 1
smoothSolver:  Solving for Uy, Initial residual = 0.0059631, Final residual = 6.83463e-07, No Iterations 1
DICPCG:  Solving for p, Initial residual = 0.0108758, Final residual = 0.000380761, No Iterations 8
time step continuity errors : sum local = 2.80493e-08, global = -4.19794e-21, cumulative = -2.12248e-19
DICPCG:  Solving for p, Initial residual = 0.000410019, Final residual = 6.14529e-07, No Iterations 23
time step continuity errors : sum local = 4.50048e-11, global = 4.92503e-20, cumulative = -1.62997e-19
ExecutionTime = 0.33 s  ClockTime = 1 s

Time = 0.071

Courant Number mean: 0.00845241 max: 0.0696105
smoothSolver:  Solving for Ux, Initial residual = 0.00509974, Final residual = 2.29631e-06, No Iterations 1
smoothSolver:  Solving for Uy, Initial residual = 0.00587466, Final residual = 6.85876e-07, No Iterations 1
DICPCG:  Solving for p, Initial residual = 0.0115506, Final residual = 0.00053749, No Iterations 7
time step continuity errors : sum local = 3.96555e-08, global = 1.73005e-20, cumulative = -1.45697e-19
DICPCG:  Solving for p, Initial residual = 0.000590237, Final residual = 4.14179e-07, No Iterations 24
time step continuity errors : sum local = 3.04537e-11, global = 2.58329e-20, cumulative = -1.19864e-19
ExecutionTime = 0.33 s  ClockTime = 1 s

Time = 0.072

Courant Number mean: 0.00853686 max: 0.0702965
smoothSolver:  Solving for Ux, Initial residual = 0.00500941, Final residual = 2.28694e-06, No Iterations 1
smoothSolver:  Solving for Uy, Initial residual = 0.00579694, Final residual = 6.90106e-07, No Iterations 1
DICPCG:  Solving for p, Initial residual = 0.0116096, Final residual = 0.000414355, No Iterations 8
time step continuity errors : sum local = 3.12668e-08, global = 2.6354e-20, cumulative = -9.35102e-20
DICPCG:  Solving for p, Initial residual = 0.000439535, Final residual = 4.28664e-07, No Iterations 24
time step continuity errors : sum local = 3.19099e-11, global = -6.00368e-20, cumulative = -1.53547e-19
ExecutionTime = 0.34 s  ClockTime = 1 s

Time = 0.073

Courant Number mean: 0.00862039 max: 0.0709757
smoothSolver:  Solving for Ux, Initial residual = 0.00491829, Final residual = 2.27786e-06, No Iterations 1
smoothSolver:  Solving for Uy, Initial residual = 0.00570587, Final residual = 6.93687e-07, No Iterations 1
DICPCG:  Solving for p, Initial residual = 0.011841, Final residual = 0.00056009, No Iterations 7
time step continuity errors : sum local = 4.23185e-08, global = 2.66228e-20, cumulative = -1.26924e-19
DICPCG:  Solving for p, Initial residual = 0.000611486, Final residual = 5.04556e-07, No Iterations 24
time step continuity errors : sum local = 3.87605e-11, global = -3.05064e-20, cumulative = -1.57431e-19
ExecutionTime = 0.34 s  ClockTime = 1 s

Time = 0.074

Courant Number mean: 0.00870301 max: 0.0716476
smoothSolver:  Solving for Ux, Initial residual = 0.00483014, Final residual = 2.26761e-06, No Iterations 1
smoothSolver:  Solving for Uy, Initial residual = 0.00562604, Final residual = 6.98271e-07, No Iterations 1
DICPCG:  Solving for p, Initial residual = 0.0129617, Final residual = 0.00056834, No Iterations 7
time step continuity errors : sum local = 4.35482e-08, global = 3.13584e-20, cumulative = -1.26072e-19
DICPCG:  Solving for p, Initial residual = 0.000623505, Final residual = 6.77476e-07, No Iterations 24
time step continuity errors : sum local = 5.29004e-11, global = 1.86612e-20, cumulative = -1.07411e-19
ExecutionTime = 0.34 s  ClockTime = 1 s

Time = 0.075

Courant Number mean: 0.00878472 max: 0.072312
smoothSolver:  Solving for Ux, Initial residual = 0.00474333, Final residual = 2.25677e-06, No Iterations 1
smoothSolver:  Solving for Uy, Initial residual = 0.0055522, Final residual = 7.07235e-07, No Iterations 1
DICPCG:  Solving for p, Initial residual = 0.015478, Final residual = 0.000604691, No Iterations 7
time step continuity errors : sum local = 4.71203e-08, global = 6.95163e-20, cumulative = -3.78947e-20
DICPCG:  Solving for p, Initial residual = 0.0006665, Final residual = 9.46718e-07, No Iterations 24
time step continuity errors : sum local = 7.5137e-11, global = 1.21182e-21, cumulative = -3.66829e-20
ExecutionTime = 0.35 s  ClockTime = 1 s

Time = 0.076

Courant Number mean: 0.00886549 max: 0.0729687
smoothSolver:  Solving for Ux, Initial residual = 0.00465783, Final residual = 2.2457e-06, No Iterations 1
smoothSolver:  Solving for Uy, Initial residual = 0.00548019, Final residual = 7.18847e-07, No Iterations 1
DICPCG:  Solving for p, Initial residual = 0.0145805, Final residual = 0.000608668, No Iterations 6
time step continuity errors : sum local = 4.78153e-08, global = 9.02868e-21, cumulative = -2.76542e-20
DICPCG:  Solving for p, Initial residual = 0.000651481, Final residual = 6.67417e-07, No Iterations 25
time step continuity errors : sum local = 5.31568e-11, global = 6.05269e-20, cumulative = 3.28727e-20
ExecutionTime = 0.36 s  ClockTime = 1 s

Time = 0.077

Courant Number mean: 0.0089465 max: 0.0736389
smoothSolver:  Solving for Ux, Initial residual = 0.00458251, Final residual = 2.22952e-06, No Iterations 1
smoothSolver:  Solving for Uy, Initial residual = 0.00545054, Final residual = 7.27724e-07, No Iterations 1
DICPCG:  Solving for p, Initial residual = 0.0154186, Final residual = 0.000753602, No Iterations 5
time step continuity errors : sum local = 5.96627e-08, global = -4.43369e-21, cumulative = 2.8439e-20
DICPCG:  Solving for p, Initial residual = 0.000762846, Final residual = 7.96965e-07, No Iterations 24
time step continuity errors : sum local = 6.414e-11, global = 2.8211e-20, cumulative = 5.665e-20
ExecutionTime = 0.36 s  ClockTime = 1 s

Time = 0.078

Courant Number mean: 0.00902712 max: 0.0743115
smoothSolver:  Solving for Ux, Initial residual = 0.0045085, Final residual = 2.21349e-06, No Iterations 1
smoothSolver:  Solving for Uy, Initial residual = 0.00541929, Final residual = 7.38016e-07, No Iterations 1
DICPCG:  Solving for p, Initial residual = 0.0114598, Final residual = 0.000464954, No Iterations 7
time step continuity errors : sum local = 3.75836e-08, global = -3.6549e-20, cumulative = 2.0101e-20
DICPCG:  Solving for p, Initial residual = 0.000574433, Final residual = 5.00608e-07, No Iterations 24
time step continuity errors : sum local = 4.1128e-11, global = 3.41502e-20, cumulative = 5.42512e-20
ExecutionTime = 0.36 s  ClockTime = 1 s

Time = 0.079

Courant Number mean: 0.00910783 max: 0.0749755
smoothSolver:  Solving for Ux, Initial residual = 0.00443895, Final residual = 2.20631e-06, No Iterations 1
smoothSolver:  Solving for Uy, Initial residual = 0.00534521, Final residual = 7.40949e-07, No Iterations 1
DICPCG:  Solving for p, Initial residual = 0.0121674, Final residual = 0.000477792, No Iterations 8
time step continuity errors : sum local = 3.93388e-08, global = 4.19587e-20, cumulative = 9.62099e-20
DICPCG:  Solving for p, Initial residual = 0.000539976, Final residual = 4.19988e-07, No Iterations 24
time step continuity errors : sum local = 3.42874e-11, global = -3.17844e-20, cumulative = 6.44255e-20
ExecutionTime = 0.37 s  ClockTime = 1 s

Time = 0.08

Courant Number mean: 0.00918811 max: 0.0756316
smoothSolver:  Solving for Ux, Initial residual = 0.00436009, Final residual = 2.19726e-06, No Iterations 1
smoothSolver:  Solving for Uy, Initial residual = 0.00524426, Final residual = 7.3756e-07, No Iterations 1
DICPCG:  Solving for p, Initial residual = 0.0156893, Final residual = 0.000718136, No Iterations 7
time step continuity errors : sum local = 5.92949e-08, global = -3.15032e-20, cumulative = 3.29223e-20
DICPCG:  Solving for p, Initial residual = 0.000786471, Final residual = 6.6377e-07, No Iterations 24
time step continuity errors : sum local = 5.55573e-11, global = -1.10594e-20, cumulative = 2.18629e-20
ExecutionTime = 0.37 s  ClockTime = 1 s

Time = 0.081

Courant Number mean: 0.00926725 max: 0.0762792
smoothSolver:  Solving for Ux, Initial residual = 0.00428011, Final residual = 2.18781e-06, No Iterations 1
smoothSolver:  Solving for Uy, Initial residual = 0.00512779, Final residual = 7.27822e-07, No Iterations 1
DICPCG:  Solving for p, Initial residual = 0.00873398, Final residual = 0.000316429, No Iterations 8
time step continuity errors : sum local = 2.68492e-08, global = 6.19103e-20, cumulative = 8.37732e-20
DICPCG:  Solving for p, Initial residual = 0.000371407, Final residual = 7.54642e-07, No Iterations 23
time step continuity errors : sum local = 6.36745e-11, global = 3.95475e-20, cumulative = 1.23321e-19
ExecutionTime = 0.37 s  ClockTime = 1 s

Time = 0.082

Courant Number mean: 0.00934657 max: 0.07692
smoothSolver:  Solving for Ux, Initial residual = 0.00421058, Final residual = 2.17271e-06, No Iterations 1
smoothSolver:  Solving for Uy, Initial residual = 0.0050773, Final residual = 7.30587e-07, No Iterations 1
DICPCG:  Solving for p, Initial residual = 0.00863472, Final residual = 0.000313689, No Iterations 8
time step continuity errors : sum local = 2.70325e-08, global = -5.77827e-20, cumulative = 6.5538e-20
DICPCG:  Solving for p, Initial residual = 0.000371147, Final residual = 6.86291e-07, No Iterations 23
time step continuity errors : sum local = 5.82893e-11, global = -7.6113e-20, cumulative = -1.0575e-20
ExecutionTime = 0.39 s  ClockTime = 1 s

Time = 0.083

Courant Number mean: 0.00942518 max: 0.0775537
smoothSolver:  Solving for Ux, Initial residual = 0.0041407, Final residual = 2.15911e-06, No Iterations 1
smoothSolver:  Solving for Uy, Initial residual = 0.00501499, Final residual = 7.33632e-07, No Iterations 1
DICPCG:  Solving for p, Initial residual = 0.00892134, Final residual = 0.000316389, No Iterations 8
time step continuity errors : sum local = 2.7584e-08, global = 1.24015e-20, cumulative = 1.82651e-21
DICPCG:  Solving for p, Initial residual = 0.00037152, Final residual = 7.45727e-07, No Iterations 23
time step continuity errors : sum local = 6.41276e-11, global = -2.13806e-20, cumulative = -1.9554e-20
ExecutionTime = 0.39 s  ClockTime = 1 s

Time = 0.084

Courant Number mean: 0.00950312 max: 0.0781808
smoothSolver:  Solving for Ux, Initial residual = 0.00407146, Final residual = 2.1449e-06, No Iterations 1
smoothSolver:  Solving for Uy, Initial residual = 0.00495001, Final residual = 7.37163e-07, No Iterations 1
DICPCG:  Solving for p, Initial residual = 0.00891206, Final residual = 0.000316717, No Iterations 8
time step continuity errors : sum local = 2.79361e-08, global = -1.00234e-19, cumulative = -1.19788e-19
DICPCG:  Solving for p, Initial residual = 0.000370765, Final residual = 8.08812e-07, No Iterations 23
time step continuity errors : sum local = 7.03746e-11, global = -3.04196e-21, cumulative = -1.2283e-19
ExecutionTime = 0.39 s  ClockTime = 1 s

Time = 0.085

Courant Number mean: 0.00958058 max: 0.0788013
smoothSolver:  Solving for Ux, Initial residual = 0.00400303, Final residual = 2.13026e-06, No Iterations 1
smoothSolver:  Solving for Uy, Initial residual = 0.00488589, Final residual = 7.41337e-07, No Iterations 1
DICPCG:  Solving for p, Initial residual = 0.00894378, Final residual = 0.000307263, No Iterations 8
time step continuity errors : sum local = 2.75102e-08, global = 6.78826e-20, cumulative = -5.4947e-20
DICPCG:  Solving for p, Initial residual = 0.000376938, Final residual = 8.20905e-07, No Iterations 23
time step continuity errors : sum local = 7.24384e-11, global = -6.20964e-20, cumulative = -1.17043e-19
ExecutionTime = 0.39 s  ClockTime = 1 s

Time = 0.086

Courant Number mean: 0.00965722 max: 0.0794144
smoothSolver:  Solving for Ux, Initial residual = 0.00393655, Final residual = 2.11625e-06, No Iterations 1
smoothSolver:  Solving for Uy, Initial residual = 0.00482592, Final residual = 7.45932e-07, No Iterations 1
DICPCG:  Solving for p, Initial residual = 0.0152888, Final residual = 0.00062341, No Iterations 6
time step continuity errors : sum local = 5.54928e-08, global = -2.10828e-20, cumulative = -1.38126e-19
DICPCG:  Solving for p, Initial residual = 0.000640937, Final residual = 9.60666e-07, No Iterations 24
time step continuity errors : sum local = 8.71245e-11, global = -2.66869e-20, cumulative = -1.64813e-19
ExecutionTime = 0.4 s  ClockTime = 1 s

Time = 0.087

Courant Number mean: 0.00973307 max: 0.0800204
smoothSolver:  Solving for Ux, Initial residual = 0.00388048, Final residual = 2.1065e-06, No Iterations 1
smoothSolver:  Solving for Uy, Initial residual = 0.0047702, Final residual = 7.43193e-07, No Iterations 1
DICPCG:  Solving for p, Initial residual = 0.0102569, Final residual = 0.00048975, No Iterations 7
time step continuity errors : sum local = 4.43112e-08, global = 1.18762e-20, cumulative = -1.52937e-19
DICPCG:  Solving for p, Initial residual = 0.000578217, Final residual = 4.32739e-07, No Iterations 24
time step continuity errors : sum local = 3.95052e-11, global = 3.42122e-20, cumulative = -1.18725e-19
ExecutionTime = 0.41 s  ClockTime = 1 s

Time = 0.088

Courant Number mean: 0.00980877 max: 0.0806201
smoothSolver:  Solving for Ux, Initial residual = 0.00381468, Final residual = 2.08484e-06, No Iterations 1
smoothSolver:  Solving for Uy, Initial residual = 0.00473306, Final residual = 7.42475e-07, No Iterations 1
DICPCG:  Solving for p, Initial residual = 0.00976849, Final residual = 0.000443369, No Iterations 7
time step continuity errors : sum local = 4.07268e-08, global = -1.00647e-20, cumulative = -1.28789e-19
DICPCG:  Solving for p, Initial residual = 0.000548555, Final residual = 6.98772e-07, No Iterations 24
time step continuity errors : sum local = 6.50819e-11, global = 3.19829e-20, cumulative = -9.68065e-20
ExecutionTime = 0.41 s  ClockTime = 1 s

Time = 0.089

Courant Number mean: 0.00988472 max: 0.0812119
smoothSolver:  Solving for Ux, Initial residual = 0.00375511, Final residual = 2.07175e-06, No Iterations 1
smoothSolver:  Solving for Uy, Initial residual = 0.00467804, Final residual = 7.40796e-07, No Iterations 1
DICPCG:  Solving for p, Initial residual = 0.00852773, Final residual = 0.000294282, No Iterations 8
time step continuity errors : sum local = 2.76593e-08, global = -6.68858e-20, cumulative = -1.63692e-19
DICPCG:  Solving for p, Initial residual = 0.000359304, Final residual = 5.83617e-07, No Iterations 23
time step continuity errors : sum local = 5.41487e-11, global = -8.62749e-21, cumulative = -1.7232e-19
ExecutionTime = 0.41 s  ClockTime = 1 s

Time = 0.09

Courant Number mean: 0.00996015 max: 0.0817974
smoothSolver:  Solving for Ux, Initial residual = 0.0036928, Final residual = 2.05444e-06, No Iterations 1
smoothSolver:  Solving for Uy, Initial residual = 0.00462449, Final residual = 7.40522e-07, No Iterations 1
DICPCG:  Solving for p, Initial residual = 0.0157758, Final residual = 0.000648634, No Iterations 5
time step continuity errors : sum local = 6.05712e-08, global = -1.9478e-20, cumulative = -1.91798e-19
DICPCG:  Solving for p, Initial residual = 0.000738702, Final residual = 7.23425e-07, No Iterations 24
time step continuity errors : sum local = 6.80737e-11, global = -2.15439e-20, cumulative = -2.13342e-19
ExecutionTime = 0.42 s  ClockTime = 1 s

Time = 0.091

Courant Number mean: 0.0100354 max: 0.0823777
smoothSolver:  Solving for Ux, Initial residual = 0.00363568, Final residual = 2.03255e-06, No Iterations 1
smoothSolver:  Solving for Uy, Initial residual = 0.00460459, Final residual = 7.46823e-07, No Iterations 1
DICPCG:  Solving for p, Initial residual = 0.00931494, Final residual = 0.000428703, No Iterations 7
time step continuity errors : sum local = 4.07638e-08, global = -2.33266e-20, cumulative = -2.36668e-19
DICPCG:  Solving for p, Initial residual = 0.000521065, Final residual = 6.1164e-07, No Iterations 24
time step continuity errors : sum local = 5.88782e-11, global = 5.27048e-20, cumulative = -1.83964e-19
ExecutionTime = 0.42 s  ClockTime = 1 s

Time = 0.092

Courant Number mean: 0.0101098 max: 0.0829494
smoothSolver:  Solving for Ux, Initial residual = 0.00357854, Final residual = 2.01914e-06, No Iterations 1
smoothSolver:  Solving for Uy, Initial residual = 0.00454736, Final residual = 7.49146e-07, No Iterations 1
DICPCG:  Solving for p, Initial residual = 0.00713692, Final residual = 0.000291516, No Iterations 8
time step continuity errors : sum local = 2.83808e-08, global = 3.53661e-20, cumulative = -1.48597e-19
DICPCG:  Solving for p, Initial residual = 0.000345329, Final residual = 8.38264e-07, No Iterations 23
time step continuity errors : sum local = 8.0624e-11, global = -7.80962e-20, cumulative = -2.26694e-19
ExecutionTime = 0.43 s  ClockTime = 1 s

Time = 0.093

Courant Number mean: 0.0101835 max: 0.0835156
smoothSolver:  Solving for Ux, Initial residual = 0.00352086, Final residual = 2.0028e-06, No Iterations 1
smoothSolver:  Solving for Uy, Initial residual = 0.00449934, Final residual = 7.51224e-07, No Iterations 1
DICPCG:  Solving for p, Initial residual = 0.00743397, Final residual = 0.00029237, No Iterations 8
time step continuity errors : sum local = 2.87834e-08, global = 6.48944e-20, cumulative = -1.61799e-19
DICPCG:  Solving for p, Initial residual = 0.000359492, Final residual = 8.39317e-07, No Iterations 23
time step continuity errors : sum local = 8.187e-11, global = 3.21794e-20, cumulative = -1.2962e-19
ExecutionTime = 0.44 s  ClockTime = 1 s

Time = 0.094

Courant Number mean: 0.0102567 max: 0.0841259
smoothSolver:  Solving for Ux, Initial residual = 0.00346463, Final residual = 1.98623e-06, No Iterations 1
smoothSolver:  Solving for Uy, Initial residual = 0.00445645, Final residual = 7.55939e-07, No Iterations 1
DICPCG:  Solving for p, Initial residual = 0.00688743, Final residual = 0.000282964, No Iterations 8
time step continuity errors : sum local = 2.82026e-08, global = -1.04782e-20, cumulative = -1.40098e-19
DICPCG:  Solving for p, Initial residual = 0.00034006, Final residual = 8.13221e-07, No Iterations 23
time step continuity errors : sum local = 8.01032e-11, global = 3.21525e-20, cumulative = -1.07946e-19
ExecutionTime = 0.44 s  ClockTime = 1 s

Time = 0.095

Courant Number mean: 0.0103291 max: 0.0847289
smoothSolver:  Solving for Ux, Initial residual = 0.00340901, Final residual = 1.969e-06, No Iterations 1
smoothSolver:  Solving for Uy, Initial residual = 0.00441127, Final residual = 7.59554e-07, No Iterations 1
DICPCG:  Solving for p, Initial residual = 0.0078066, Final residual = 0.000285345, No Iterations 8
time step continuity errors : sum local = 2.87618e-08, global = 1.03996e-20, cumulative = -9.7546e-20
DICPCG:  Solving for p, Initial residual = 0.000360108, Final residual = 8.39211e-07, No Iterations 23
time step continuity errors : sum local = 8.38778e-11, global = -1.24842e-20, cumulative = -1.1003e-19
ExecutionTime = 0.44 s  ClockTime = 1 s

Time = 0.096

Courant Number mean: 0.0104007 max: 0.0853201
smoothSolver:  Solving for Ux, Initial residual = 0.0033546, Final residual = 1.95168e-06, No Iterations 1
smoothSolver:  Solving for Uy, Initial residual = 0.00437445, Final residual = 7.69762e-07, No Iterations 1
DICPCG:  Solving for p, Initial residual = 0.00705056, Final residual = 0.0002745, No Iterations 8
time step continuity errors : sum local = 2.80039e-08, global = -7.19751e-20, cumulative = -1.82005e-19
DICPCG:  Solving for p, Initial residual = 0.000332265, Final residual = 8.17277e-07, No Iterations 23
time step continuity errors : sum local = 8.23946e-11, global = -8.22672e-20, cumulative = -2.64273e-19
ExecutionTime = 0.44 s  ClockTime = 1 s

Time = 0.097

Courant Number mean: 0.0104717 max: 0.0859069
smoothSolver:  Solving for Ux, Initial residual = 0.0033004, Final residual = 1.93401e-06, No Iterations 1
smoothSolver:  Solving for Uy, Initial residual = 0.0043305, Final residual = 7.74793e-07, No Iterations 1
DICPCG:  Solving for p, Initial residual = 0.00705163, Final residual = 0.000273877, No Iterations 8
time step continuity errors : sum local = 2.82572e-08, global = -6.47703e-20, cumulative = -3.29043e-19
DICPCG:  Solving for p, Initial residual = 0.000330736, Final residual = 8.4309e-07, No Iterations 23
time step continuity errors : sum local = 8.601e-11, global = 1.73605e-20, cumulative = -3.11682e-19
ExecutionTime = 0.45 s  ClockTime = 1 s

Time = 0.098

Courant Number mean: 0.0105419 max: 0.0864873
smoothSolver:  Solving for Ux, Initial residual = 0.00324751, Final residual = 1.91619e-06, No Iterations 1
smoothSolver:  Solving for Uy, Initial residual = 0.00429016, Final residual = 7.80349e-07, No Iterations 1
DICPCG:  Solving for p, Initial residual = 0.00728776, Final residual = 0.000272005, No Iterations 8
time step continuity errors : sum local = 2.83976e-08, global = -3.29218e-21, cumulative = -3.14975e-19
DICPCG:  Solving for p, Initial residual = 0.000328078, Final residual = 8.50132e-07, No Iterations 23
time step continuity errors : sum local = 8.78304e-11, global = -1.51415e-20, cumulative = -3.30116e-19
ExecutionTime = 0.46 s  ClockTime = 1 s

Time = 0.099

Courant Number mean: 0.0106114 max: 0.0870613
smoothSolver:  Solving for Ux, Initial residual = 0.00319557, Final residual = 1.8981e-06, No Iterations 1
smoothSolver:  Solving for Uy, Initial residual = 0.00425073, Final residual = 7.85315e-07, No Iterations 1
DICPCG:  Solving for p, Initial residual = 0.00694475, Final residual = 0.000263156, No Iterations 8
time step continuity errors : sum local = 2.77816e-08, global = -2.72453e-20, cumulative = -3.57361e-19
DICPCG:  Solving for p, Initial residual = 0.000324393, Final residual = 8.00722e-07, No Iterations 23
time step continuity errors : sum local = 8.37751e-11, global = 4.64193e-20, cumulative = -3.10942e-19
ExecutionTime = 0.46 s  ClockTime = 1 s

Time = 0.1

Courant Number mean: 0.0106802 max: 0.0876298
smoothSolver:  Solving for Ux, Initial residual = 0.00314391, Final residual = 1.87953e-06, No Iterations 1
smoothSolver:  Solving for Uy, Initial residual = 0.0042079, Final residual = 7.90199e-07, No Iterations 1
DICPCG:  Solving for p, Initial residual = 0.00786942, Final residual = 0.000383641, No Iterations 7
time step continuity errors : sum local = 4.05905e-08, global = 3.18092e-20, cumulative = -2.79133e-19
DICPCG:  Solving for p, Initial residual = 0.000455748, Final residual = 5.36215e-07, No Iterations 24
time step continuity errors : sum local = 5.72319e-11, global = 2.36512e-20, cumulative = -2.55482e-19
ExecutionTime = 0.46 s  ClockTime = 1 s

Time = 0.101

Courant Number mean: 0.010749 max: 0.0881932
smoothSolver:  Solving for Ux, Initial residual = 0.00309251, Final residual = 1.86048e-06, No Iterations 1
smoothSolver:  Solving for Uy, Initial residual = 0.00416272, Final residual = 7.95636e-07, No Iterations 1
DICPCG:  Solving for p, Initial residual = 0.00759105, Final residual = 0.000253267, No Iterations 8
time step continuity errors : sum local = 2.73491e-08, global = -4.57431e-21, cumulative = -2.60056e-19
DICPCG:  Solving for p, Initial residual = 0.000320215, Final residual = 7.73744e-07, No Iterations 23
time step continuity errors : sum local = 8.26673e-11, global = -2.0756e-20, cumulative = -2.80812e-19
ExecutionTime = 0.47 s  ClockTime = 1 s

Time = 0.102

Courant Number mean: 0.0108172 max: 0.0887502
smoothSolver:  Solving for Ux, Initial residual = 0.00304296, Final residual = 1.84147e-06, No Iterations 1
smoothSolver:  Solving for Uy, Initial residual = 0.00412234, Final residual = 8.01227e-07, No Iterations 1
DICPCG:  Solving for p, Initial residual = 0.00805877, Final residual = 0.000358548, No Iterations 7
time step continuity errors : sum local = 3.86419e-08, global = -2.04107e-21, cumulative = -2.82853e-19
DICPCG:  Solving for p, Initial residual = 0.000432986, Final residual = 4.81127e-07, No Iterations 24
time step continuity errors : sum local = 5.22851e-11, global = -8.68209e-20, cumulative = -3.69674e-19
ExecutionTime = 0.48 s  ClockTime = 1 s

Time = 0.103

Courant Number mean: 0.0108848 max: 0.0893018
smoothSolver:  Solving for Ux, Initial residual = 0.00299526, Final residual = 1.82247e-06, No Iterations 1
smoothSolver:  Solving for Uy, Initial residual = 0.00407885, Final residual = 8.06998e-07, No Iterations 1
DICPCG:  Solving for p, Initial residual = 0.00673326, Final residual = 0.000249753, No Iterations 8
time step continuity errors : sum local = 2.74738e-08, global = 1.59232e-22, cumulative = -3.69515e-19
DICPCG:  Solving for p, Initial residual = 0.000312676, Final residual = 8.044e-07, No Iterations 23
time step continuity errors : sum local = 8.7551e-11, global = 7.72793e-21, cumulative = -3.61787e-19
ExecutionTime = 0.48 s  ClockTime = 1 s

Time = 0.104

Courant Number mean: 0.0109517 max: 0.0898459
smoothSolver:  Solving for Ux, Initial residual = 0.00294956, Final residual = 1.80383e-06, No Iterations 1
smoothSolver:  Solving for Uy, Initial residual = 0.00404321, Final residual = 8.11989e-07, No Iterations 1
DICPCG:  Solving for p, Initial residual = 0.00649242, Final residual = 0.000247001, No Iterations 8
time step continuity errors : sum local = 2.74856e-08, global = 1.3572e-20, cumulative = -3.48215e-19
DICPCG:  Solving for p, Initial residual = 0.000306569, Final residual = 8.01556e-07, No Iterations 23
time step continuity errors : sum local = 8.82541e-11, global = -3.73989e-20, cumulative = -3.85614e-19
ExecutionTime = 0.48 s  ClockTime = 1 s

Time = 0.105

Courant Number mean: 0.0110179 max: 0.090383
smoothSolver:  Solving for Ux, Initial residual = 0.0029052, Final residual = 1.78513e-06, No Iterations 1
smoothSolver:  Solving for Uy, Initial residual = 0.00400772, Final residual = 8.17624e-07, No Iterations 1
DICPCG:  Solving for p, Initial residual = 0.00642222, Final residual = 0.000242231, No Iterations 8
time step continuity errors : sum local = 2.72612e-08, global = 4.99101e-20, cumulative = -3.35704e-19
DICPCG:  Solving for p, Initial residual = 0.000301022, Final residual = 7.99275e-07, No Iterations 23
time step continuity errors : sum local = 8.90134e-11, global = 2.57977e-21, cumulative = -3.33124e-19
ExecutionTime = 0.49 s  ClockTime = 1 s

Time = 0.106

[...]
DICPCG:  Solving for p, Initial residual = 1.49569e-06, Final residual = 7.9413e-07, No Iterations 2
time step continuity errors : sum local = 3.4615e-10, global = 1.20007e-19, cumulative = -1.14768e-17
ExecutionTime = 22.24 s  ClockTime = 56 s

Time = 4.974

Courant Number mean: 0.0461919 max: 0.121293
smoothSolver:  Solving for Ux, Initial residual = 2.28113e-06, Final residual = 2.28113e-06, No Iterations 0
smoothSolver:  Solving for Uy, Initial residual = 2.20421e-06, Final residual = 2.20421e-06, No Iterations 0
DICPCG:  Solving for p, Initial residual = 2.34749e-06, Final residual = 7.90434e-07, No Iterations 2
time step continuity errors : sum local = 3.29719e-10, global = -6.60752e-20, cumulative = -1.15429e-17
DICPCG:  Solving for p, Initial residual = 1.5193e-06, Final residual = 6.9956e-07, No Iterations 2
time step continuity errors : sum local = 3.08205e-10, global = -1.17228e-19, cumulative = -1.16601e-17
ExecutionTime = 22.25 s  ClockTime = 56 s

Time = 4.975

Courant Number mean: 0.0461921 max: 0.121293
smoothSolver:  Solving for Ux, Initial residual = 2.27969e-06, Final residual = 2.27969e-06, No Iterations 0
smoothSolver:  Solving for Uy, Initial residual = 2.20146e-06, Final residual = 2.20146e-06, No Iterations 0
DICPCG:  Solving for p, Initial residual = 1.85021e-06, Final residual = 8.7639e-07, No Iterations 2
time step continuity errors : sum local = 3.39137e-10, global = -6.8656e-20, cumulative = -1.17288e-17
DICPCG:  Solving for p, Initial residual = 1.67608e-06, Final residual = 6.86346e-07, No Iterations 2
time step continuity errors : sum local = 2.85398e-10, global = -4.61898e-20, cumulative = -1.1775e-17
ExecutionTime = 22.25 s  ClockTime = 56 s

Time = 4.976

Courant Number mean: 0.0461923 max: 0.121293
smoothSolver:  Solving for Ux, Initial residual = 2.2783e-06, Final residual = 2.2783e-06, No Iterations 0
smoothSolver:  Solving for Uy, Initial residual = 2.19875e-06, Final residual = 2.19875e-06, No Iterations 0
DICPCG:  Solving for p, Initial residual = 2.0668e-06, Final residual = 4.21289e-07, No Iterations 3
time step continuity errors : sum local = 1.70995e-10, global = -1.60076e-19, cumulative = -1.1935e-17
DICPCG:  Solving for p, Initial residual = 1.46196e-06, Final residual = 5.89601e-07, No Iterations 2
time step continuity errors : sum local = 2.22075e-10, global = -9.40339e-20, cumulative = -1.20291e-17
ExecutionTime = 22.25 s  ClockTime = 56 s

Time = 4.977

Courant Number mean: 0.0461925 max: 0.121293
smoothSolver:  Solving for Ux, Initial residual = 2.27713e-06, Final residual = 2.27713e-06, No Iterations 0
smoothSolver:  Solving for Uy, Initial residual = 2.19627e-06, Final residual = 2.19627e-06, No Iterations 0
DICPCG:  Solving for p, Initial residual = 2.20178e-06, Final residual = 8.12229e-07, No Iterations 2
time step continuity errors : sum local = 2.62022e-10, global = 7.48433e-20, cumulative = -1.19542e-17
DICPCG:  Solving for p, Initial residual = 1.67583e-06, Final residual = 6.1788e-07, No Iterations 2
time step continuity errors : sum local = 1.97842e-10, global = -1.02901e-20, cumulative = -1.19645e-17
ExecutionTime = 22.26 s  ClockTime = 56 s

Time = 4.978

Courant Number mean: 0.0461927 max: 0.121293
smoothSolver:  Solving for Ux, Initial residual = 2.27528e-06, Final residual = 2.27528e-06, No Iterations 0
smoothSolver:  Solving for Uy, Initial residual = 2.19395e-06, Final residual = 2.19395e-06, No Iterations 0
DICPCG:  Solving for p, Initial residual = 1.86709e-06, Final residual = 8.55169e-07, No Iterations 2
time step continuity errors : sum local = 2.66595e-10, global = -2.00045e-19, cumulative = -1.21646e-17
DICPCG:  Solving for p, Initial residual = 1.71355e-06, Final residual = 7.29542e-07, No Iterations 2
time step continuity errors : sum local = 2.31887e-10, global = 4.84066e-20, cumulative = -1.21162e-17
ExecutionTime = 22.27 s  ClockTime = 56 s

Time = 4.979

Courant Number mean: 0.0461929 max: 0.121293
smoothSolver:  Solving for Ux, Initial residual = 2.27312e-06, Final residual = 2.27312e-06, No Iterations 0
smoothSolver:  Solving for Uy, Initial residual = 2.19206e-06, Final residual = 2.19206e-06, No Iterations 0
DICPCG:  Solving for p, Initial residual = 1.94993e-06, Final residual = 9.7762e-07, No Iterations 2
time step continuity errors : sum local = 3.34053e-10, global = 1.89954e-19, cumulative = -1.19262e-17
DICPCG:  Solving for p, Initial residual = 1.80238e-06, Final residual = 8.20715e-07, No Iterations 2
time step continuity errors : sum local = 2.87991e-10, global = -4.19546e-20, cumulative = -1.19682e-17
ExecutionTime = 22.27 s  ClockTime = 56 s

Time = 4.98

Courant Number mean: 0.0461931 max: 0.121293
smoothSolver:  Solving for Ux, Initial residual = 2.27104e-06, Final residual = 2.27104e-06, No Iterations 0
smoothSolver:  Solving for Uy, Initial residual = 2.19015e-06, Final residual = 2.19015e-06, No Iterations 0
DICPCG:  Solving for p, Initial residual = 2.07767e-06, Final residual = 5.3808e-07, No Iterations 3
time step continuity errors : sum local = 2.3066e-10, global = 2.51463e-20, cumulative = -1.1943e-17
DICPCG:  Solving for p, Initial residual = 1.46208e-06, Final residual = 7.48326e-07, No Iterations 2
time step continuity errors : sum local = 2.98721e-10, global = 9.15193e-20, cumulative = -1.18515e-17
ExecutionTime = 22.27 s  ClockTime = 57 s

Time = 4.981

Courant Number mean: 0.0461933 max: 0.121293
smoothSolver:  Solving for Ux, Initial residual = 2.26952e-06, Final residual = 2.26952e-06, No Iterations 0
smoothSolver:  Solving for Uy, Initial residual = 2.18797e-06, Final residual = 2.18797e-06, No Iterations 0
DICPCG:  Solving for p, Initial residual = 2.29374e-06, Final residual = 5.42566e-07, No Iterations 3
time step continuity errors : sum local = 2.61828e-10, global = -2.87594e-19, cumulative = -1.21391e-17
DICPCG:  Solving for p, Initial residual = 1.41866e-06, Final residual = 7.47943e-07, No Iterations 2
time step continuity errors : sum local = 3.2821e-10, global = -2.11096e-19, cumulative = -1.23502e-17
ExecutionTime = 22.28 s  ClockTime = 57 s

Time = 4.982

Courant Number mean: 0.0461935 max: 0.121293
smoothSolver:  Solving for Ux, Initial residual = 2.26735e-06, Final residual = 2.26735e-06, No Iterations 0
smoothSolver:  Solving for Uy, Initial residual = 2.18608e-06, Final residual = 2.18608e-06, No Iterations 0
DICPCG:  Solving for p, Initial residual = 2.26678e-06, Final residual = 9.49555e-07, No Iterations 2
time step continuity errors : sum local = 3.95927e-10, global = 1.63815e-19, cumulative = -1.21864e-17
DICPCG:  Solving for p, Initial residual = 1.60317e-06, Final residual = 9.145e-07, No Iterations 2
time step continuity errors : sum local = 4.00164e-10, global = 1.69605e-19, cumulative = -1.20168e-17
ExecutionTime = 22.28 s  ClockTime = 57 s

Time = 4.983

Courant Number mean: 0.0461937 max: 0.121293
smoothSolver:  Solving for Ux, Initial residual = 2.26497e-06, Final residual = 2.26497e-06, No Iterations 0
smoothSolver:  Solving for Uy, Initial residual = 2.18425e-06, Final residual = 2.18425e-06, No Iterations 0
DICPCG:  Solving for p, Initial residual = 2.04674e-06, Final residual = 8.41353e-07, No Iterations 3
time step continuity errors : sum local = 4.02807e-10, global = -1.19048e-19, cumulative = -1.21358e-17
DICPCG:  Solving for p, Initial residual = 1.51425e-06, Final residual = 9.91414e-07, No Iterations 3
time step continuity errors : sum local = 4.48771e-10, global = 1.16037e-19, cumulative = -1.20198e-17
ExecutionTime = 22.29 s  ClockTime = 57 s

Time = 4.984

Courant Number mean: 0.0461939 max: 0.121293
smoothSolver:  Solving for Ux, Initial residual = 2.26248e-06, Final residual = 2.26248e-06, No Iterations 0
smoothSolver:  Solving for Uy, Initial residual = 2.18299e-06, Final residual = 2.18299e-06, No Iterations 0
DICPCG:  Solving for p, Initial residual = 2.38838e-06, Final residual = 7.52254e-07, No Iterations 12
time step continuity errors : sum local = 2.28752e-10, global = 2.2367e-20, cumulative = -1.19974e-17
DICPCG:  Solving for p, Initial residual = 1.55189e-06, Final residual = 7.38184e-07, No Iterations 2
time step continuity errors : sum local = 2.23455e-10, global = -1.0707e-19, cumulative = -1.21045e-17
ExecutionTime = 22.29 s  ClockTime = 57 s

Time = 4.985

Courant Number mean: 0.0461941 max: 0.121293
smoothSolver:  Solving for Ux, Initial residual = 2.25497e-06, Final residual = 2.25497e-06, No Iterations 0
smoothSolver:  Solving for Uy, Initial residual = 2.19196e-06, Final residual = 2.19196e-06, No Iterations 0
DICPCG:  Solving for p, Initial residual = 3.05104e-06, Final residual = 8.66118e-07, No Iterations 3
time step continuity errors : sum local = 3.66502e-10, global = 1.15905e-19, cumulative = -1.19886e-17
DICPCG:  Solving for p, Initial residual = 1.60343e-06, Final residual = 8.09211e-07, No Iterations 2
time step continuity errors : sum local = 3.42621e-10, global = 3.66276e-20, cumulative = -1.19519e-17
ExecutionTime = 22.3 s  ClockTime = 57 s

Time = 4.986

Courant Number mean: 0.0461943 max: 0.121293
smoothSolver:  Solving for Ux, Initial residual = 2.25266e-06, Final residual = 2.25266e-06, No Iterations 0
smoothSolver:  Solving for Uy, Initial residual = 2.18748e-06, Final residual = 2.18748e-06, No Iterations 0
DICPCG:  Solving for p, Initial residual = 2.43379e-06, Final residual = 9.50121e-07, No Iterations 14
time step continuity errors : sum local = 2.87953e-10, global = 1.06342e-19, cumulative = -1.18456e-17
DICPCG:  Solving for p, Initial residual = 1.64809e-06, Final residual = 7.31449e-07, No Iterations 2
time step continuity errors : sum local = 2.21906e-10, global = 1.21099e-19, cumulative = -1.17245e-17
ExecutionTime = 22.3 s  ClockTime = 57 s

Time = 4.987

Courant Number mean: 0.0461945 max: 0.121293
smoothSolver:  Solving for Ux, Initial residual = 2.26242e-06, Final residual = 2.26242e-06, No Iterations 0
smoothSolver:  Solving for Uy, Initial residual = 2.17397e-06, Final residual = 2.17397e-06, No Iterations 0
DICPCG:  Solving for p, Initial residual = 2.56271e-06, Final residual = 8.56961e-07, No Iterations 3
time step continuity errors : sum local = 3.37484e-10, global = 4.42707e-20, cumulative = -1.16802e-17
DICPCG:  Solving for p, Initial residual = 1.59721e-06, Final residual = 8.34822e-07, No Iterations 2
time step continuity errors : sum local = 3.3174e-10, global = -8.79128e-20, cumulative = -1.17681e-17
ExecutionTime = 22.3 s  ClockTime = 57 s

Time = 4.988

Courant Number mean: 0.0461947 max: 0.121293
smoothSolver:  Solving for Ux, Initial residual = 2.26168e-06, Final residual = 2.26168e-06, No Iterations 0
smoothSolver:  Solving for Uy, Initial residual = 2.16945e-06, Final residual = 2.16945e-06, No Iterations 0
DICPCG:  Solving for p, Initial residual = 2.37912e-06, Final residual = 8.63083e-07, No Iterations 14
time step continuity errors : sum local = 2.60341e-10, global = 4.437e-20, cumulative = -1.17238e-17
DICPCG:  Solving for p, Initial residual = 1.62041e-06, Final residual = 6.60819e-07, No Iterations 2
time step continuity errors : sum local = 2.00646e-10, global = 7.22294e-20, cumulative = -1.16515e-17
ExecutionTime = 22.31 s  ClockTime = 57 s

Time = 4.989

Courant Number mean: 0.0461949 max: 0.121293
smoothSolver:  Solving for Ux, Initial residual = 2.24933e-06, Final residual = 2.24933e-06, No Iterations 0
smoothSolver:  Solving for Uy, Initial residual = 2.17748e-06, Final residual = 2.17748e-06, No Iterations 0
DICPCG:  Solving for p, Initial residual = 2.52286e-06, Final residual = 5.96744e-07, No Iterations 3
time step continuity errors : sum local = 2.32215e-10, global = 5.09874e-20, cumulative = -1.16006e-17
DICPCG:  Solving for p, Initial residual = 1.4584e-06, Final residual = 6.36275e-07, No Iterations 2
time step continuity errors : sum local = 2.42486e-10, global = 1.92237e-19, cumulative = -1.14083e-17
ExecutionTime = 22.31 s  ClockTime = 57 s

Time = 4.99

Courant Number mean: 0.0461951 max: 0.121293
smoothSolver:  Solving for Ux, Initial residual = 2.24697e-06, Final residual = 2.24697e-06, No Iterations 0
smoothSolver:  Solving for Uy, Initial residual = 2.17503e-06, Final residual = 2.17503e-06, No Iterations 0
DICPCG:  Solving for p, Initial residual = 2.08154e-06, Final residual = 8.72067e-07, No Iterations 2
time step continuity errors : sum local = 3.42452e-10, global = -1.31621e-19, cumulative = -1.15399e-17
DICPCG:  Solving for p, Initial residual = 1.77934e-06, Final residual = 7.83176e-07, No Iterations 2
time step continuity errors : sum local = 3.15771e-10, global = 9.08575e-20, cumulative = -1.14491e-17
ExecutionTime = 22.32 s  ClockTime = 57 s

Time = 4.991

Courant Number mean: 0.0461953 max: 0.121293
smoothSolver:  Solving for Ux, Initial residual = 2.24698e-06, Final residual = 2.24698e-06, No Iterations 0
smoothSolver:  Solving for Uy, Initial residual = 2.17065e-06, Final residual = 2.17065e-06, No Iterations 0
DICPCG:  Solving for p, Initial residual = 1.99201e-06, Final residual = 6.71479e-07, No Iterations 3
time step continuity errors : sum local = 3.06283e-10, global = -2.26647e-20, cumulative = -1.14718e-17
DICPCG:  Solving for p, Initial residual = 1.46949e-06, Final residual = 6.79846e-07, No Iterations 2
time step continuity errors : sum local = 3.0936e-10, global = -1.01115e-19, cumulative = -1.15729e-17
ExecutionTime = 22.32 s  ClockTime = 57 s

Time = 4.992

Courant Number mean: 0.0461955 max: 0.121293
smoothSolver:  Solving for Ux, Initial residual = 2.24613e-06, Final residual = 2.24613e-06, No Iterations 0
smoothSolver:  Solving for Uy, Initial residual = 2.16771e-06, Final residual = 2.16771e-06, No Iterations 0
DICPCG:  Solving for p, Initial residual = 2.04489e-06, Final residual = 7.68775e-07, No Iterations 2
time step continuity errors : sum local = 3.2168e-10, global = -2.11891e-19, cumulative = -1.17848e-17
DICPCG:  Solving for p, Initial residual = 1.50046e-06, Final residual = 6.35544e-07, No Iterations 2
time step continuity errors : sum local = 2.97177e-10, global = 4.80096e-20, cumulative = -1.17367e-17
ExecutionTime = 22.32 s  ClockTime = 57 s

Time = 4.993

Courant Number mean: 0.0461957 max: 0.121293
smoothSolver:  Solving for Ux, Initial residual = 2.24506e-06, Final residual = 2.24506e-06, No Iterations 0
smoothSolver:  Solving for Uy, Initial residual = 2.16469e-06, Final residual = 2.16469e-06, No Iterations 0
DICPCG:  Solving for p, Initial residual = 1.70974e-06, Final residual = 8.48909e-07, No Iterations 2
time step continuity errors : sum local = 3.52908e-10, global = 6.31966e-21, cumulative = -1.17304e-17
DICPCG:  Solving for p, Initial residual = 1.54201e-06, Final residual = 7.07399e-07, No Iterations 2
time step continuity errors : sum local = 3.09469e-10, global = 1.89127e-19, cumulative = -1.15413e-17
ExecutionTime = 22.33 s  ClockTime = 57 s

Time = 4.994

Courant Number mean: 0.0461959 max: 0.121293
smoothSolver:  Solving for Ux, Initial residual = 2.24377e-06, Final residual = 2.24377e-06, No Iterations 0
smoothSolver:  Solving for Uy, Initial residual = 2.16195e-06, Final residual = 2.16195e-06, No Iterations 0
DICPCG:  Solving for p, Initial residual = 1.94924e-06, Final residual = 9.85214e-07, No Iterations 2
time step continuity errors : sum local = 3.73522e-10, global = 3.21939e-20, cumulative = -1.15091e-17
DICPCG:  Solving for p, Initial residual = 1.72469e-06, Final residual = 8.05917e-07, No Iterations 2
time step continuity errors : sum local = 3.20682e-10, global = 1.37544e-19, cumulative = -1.13716e-17
ExecutionTime = 22.34 s  ClockTime = 57 s

Time = 4.995

Courant Number mean: 0.0461961 max: 0.121293
smoothSolver:  Solving for Ux, Initial residual = 2.2423e-06, Final residual = 2.2423e-06, No Iterations 0
smoothSolver:  Solving for Uy, Initial residual = 2.15955e-06, Final residual = 2.15955e-06, No Iterations 0
DICPCG:  Solving for p, Initial residual = 2.08646e-06, Final residual = 9.97962e-07, No Iterations 2
time step continuity errors : sum local = 3.49963e-10, global = -1.64973e-19, cumulative = -1.15365e-17
DICPCG:  Solving for p, Initial residual = 1.7685e-06, Final residual = 8.16988e-07, No Iterations 2
time step continuity errors : sum local = 2.98898e-10, global = -9.80044e-20, cumulative = -1.16345e-17
ExecutionTime = 22.34 s  ClockTime = 57 s

Time = 4.996

Courant Number mean: 0.0461963 max: 0.121294
smoothSolver:  Solving for Ux, Initial residual = 2.24069e-06, Final residual = 2.24069e-06, No Iterations 0
smoothSolver:  Solving for Uy, Initial residual = 2.15732e-06, Final residual = 2.15732e-06, No Iterations 0
DICPCG:  Solving for p, Initial residual = 2.03832e-06, Final residual = 9.63826e-07, No Iterations 2
time step continuity errors : sum local = 3.1e-10, global = 5.31381e-20, cumulative = -1.15814e-17
DICPCG:  Solving for p, Initial residual = 1.7716e-06, Final residual = 7.69926e-07, No Iterations 2
time step continuity errors : sum local = 2.56142e-10, global = 1.22952e-19, cumulative = -1.14585e-17
ExecutionTime = 22.34 s  ClockTime = 57 s

Time = 4.997

Courant Number mean: 0.0461965 max: 0.121294
smoothSolver:  Solving for Ux, Initial residual = 2.23901e-06, Final residual = 2.23901e-06, No Iterations 0
smoothSolver:  Solving for Uy, Initial residual = 2.15517e-06, Final residual = 2.15517e-06, No Iterations 0
DICPCG:  Solving for p, Initial residual = 1.93404e-06, Final residual = 9.20925e-07, No Iterations 2
time step continuity errors : sum local = 2.90337e-10, global = 1.68844e-19, cumulative = -1.12896e-17
DICPCG:  Solving for p, Initial residual = 1.74931e-06, Final residual = 7.38163e-07, No Iterations 2
time step continuity errors : sum local = 2.30157e-10, global = 1.21099e-19, cumulative = -1.11685e-17
ExecutionTime = 22.34 s  ClockTime = 57 s

Time = 4.998

Courant Number mean: 0.0461967 max: 0.121294
smoothSolver:  Solving for Ux, Initial residual = 2.23722e-06, Final residual = 2.23722e-06, No Iterations 0
smoothSolver:  Solving for Uy, Initial residual = 2.15308e-06, Final residual = 2.15308e-06, No Iterations 0
DICPCG:  Solving for p, Initial residual = 1.89926e-06, Final residual = 9.2401e-07, No Iterations 2
time step continuity errors : sum local = 3.2273e-10, global = -8.70525e-20, cumulative = -1.12556e-17
DICPCG:  Solving for p, Initial residual = 1.74725e-06, Final residual = 7.5301e-07, No Iterations 2
time step continuity errors : sum local = 2.65113e-10, global = -7.49426e-20, cumulative = -1.13305e-17
ExecutionTime = 22.35 s  ClockTime = 57 s

Time = 4.999

Courant Number mean: 0.0461969 max: 0.121294
smoothSolver:  Solving for Ux, Initial residual = 2.23534e-06, Final residual = 2.23534e-06, No Iterations 0
smoothSolver:  Solving for Uy, Initial residual = 2.15103e-06, Final residual = 2.15103e-06, No Iterations 0
DICPCG:  Solving for p, Initial residual = 1.92317e-06, Final residual = 9.90936e-07, No Iterations 2
time step continuity errors : sum local = 3.73801e-10, global = 5.50241e-20, cumulative = -1.12755e-17
DICPCG:  Solving for p, Initial residual = 1.77878e-06, Final residual = 8.25035e-07, No Iterations 2
time step continuity errors : sum local = 3.16733e-10, global = 8.73172e-20, cumulative = -1.11882e-17
ExecutionTime = 22.36 s  ClockTime = 57 s

Time = 5

Courant Number mean: 0.0461971 max: 0.121294
smoothSolver:  Solving for Ux, Initial residual = 2.23341e-06, Final residual = 2.23341e-06, No Iterations 0
smoothSolver:  Solving for Uy, Initial residual = 2.14899e-06, Final residual = 2.14899e-06, No Iterations 0
DICPCG:  Solving for p, Initial residual = 1.99157e-06, Final residual = 6.26391e-07, No Iterations 3
time step continuity errors : sum local = 2.84956e-10, global = -8.43062e-20, cumulative = -1.12725e-17
DICPCG:  Solving for p, Initial residual = 1.45738e-06, Final residual = 8.23765e-07, No Iterations 2
time step continuity errors : sum local = 3.49757e-10, global = 9.79713e-20, cumulative = -1.11745e-17
ExecutionTime = 22.36 s  ClockTime = 57 s

End


real	0m57.011s
user	0m13.351s
sys	0m9.036s
