rm: cannot remove '0.*': No such file or directory
rm: cannot remove '[1-9]*': No such file or directory
/*---------------------------------------------------------------------------*\
| =========                 |                                                 |
| \\      /  F ield         | OpenFOAM: The Open Source CFD Toolbox           |
|  \\    /   O peration     | Version:  2212                                  |
|   \\  /    A nd           | Website:  www.openfoam.com                      |
|    \\/     M anipulation  |                                                 |
\*---------------------------------------------------------------------------*/
Build  : _f8e05934-20230403 OPENFOAM=2212 patch=230110 version=2212
Arch   : "LSB;label=32;scalar=64"
Exec   : blockMesh
Date   : Jun 11 2023
Time   : 13:32:36
Host   : r1i0n16
PID    : 667839
I/O    : uncollated
Case   : /mnt/cases/cavity_nu0.01_U1_100x100
nProcs : 1
trapFpe: Floating point exception trapping enabled (FOAM_SIGFPE).
fileModificationChecking : Monitoring run-time modified files using timeStampMaster (fileModificationSkew 5, maxFileModificationPolls 20)
allowSystemOperations : Allowing user-supplied system call operations

// * * * * * * * * * * * * * * * * * * * * * * * * * * * * * * * * * * * * * //
Create time

Creating block mesh from "system/blockMeshDict"
Creating block edges
No non-planar block faces defined
Creating topology blocks

Creating topology patches - from boundary section

Creating block mesh topology - scaling/transform applied later

Check topology

	Basic statistics
		Number of internal faces : 0
		Number of boundary faces : 6
		Number of defined boundary faces : 6
		Number of undefined boundary faces : 0
	Checking patch -> block consistency

Creating block offsets
Creating merge list (topological search)...

Creating polyMesh from blockMesh
Creating patches
Creating cells
Creating points with scale (0.1 0.1 0.1)
    Block 0 cell size :
        i : 0.001 .. 0.001
        j : 0.001 .. 0.001
        k : 0.01 .. 0.01

No patch pairs to merge

Writing polyMesh with 0 cellZones
----------------
Mesh Information
----------------
  boundingBox: (0 0 0) (0.1 0.1 0.01)
  nPoints: 20402
  nCells: 10000
  nFaces: 40200
  nInternalFaces: 19800
----------------
Patches
----------------
  patch 0 (start: 19800 size: 100) name: movingWall
  patch 1 (start: 19900 size: 300) name: fixedWalls
  patch 2 (start: 20200 size: 20000) name: frontAndBack

End


real	0m0.810s
user	0m0.125s
sys	0m0.243s
/*---------------------------------------------------------------------------*\
| =========                 |                                                 |
| \\      /  F ield         | OpenFOAM: The Open Source CFD Toolbox           |
|  \\    /   O peration     | Version:  2212                                  |
|   \\  /    A nd           | Website:  www.openfoam.com                      |
|    \\/     M anipulation  |                                                 |
\*---------------------------------------------------------------------------*/
Build  : _f8e05934-20230403 OPENFOAM=2212 patch=230110 version=2212
Arch   : "LSB;label=32;scalar=64"
Exec   : icoFoam
Date   : Jun 11 2023
Time   : 13:32:36
Host   : r1i0n16
PID    : 667842
I/O    : uncollated
Case   : /mnt/cases/cavity_nu0.01_U1_100x100
nProcs : 1
trapFpe: Floating point exception trapping enabled (FOAM_SIGFPE).
fileModificationChecking : Monitoring run-time modified files using timeStampMaster (fileModificationSkew 5, maxFileModificationPolls 20)
allowSystemOperations : Allowing user-supplied system call operations

// * * * * * * * * * * * * * * * * * * * * * * * * * * * * * * * * * * * * * //
Create time

Create mesh for time = 0


PISO: Operating solver in PISO mode

Reading transportProperties

Reading field p

Reading field U

Reading/calculating face flux field phi


Starting time loop

Time = 0.001

Courant Number mean: 0 max: 0
smoothSolver:  Solving for Ux, Initial residual = 1, Final residual = 9.64745e-06, No Iterations 81
smoothSolver:  Solving for Uy, Initial residual = 0, Final residual = 0, No Iterations 0
DICPCG:  Solving for p, Initial residual = 1, Final residual = 0.0485523, No Iterations 120
time step continuity errors : sum local = 3.03482e-05, global = -3.2168e-20, cumulative = -3.2168e-20
DICPCG:  Solving for p, Initial residual = 0.682401, Final residual = 7.69451e-07, No Iterations 175
time step continuity errors : sum local = 7.23889e-10, global = -1.14345e-20, cumulative = -4.36025e-20
ExecutionTime = 0.17 s  ClockTime = 0 s

Time = 0.002

Courant Number mean: 0.0588167 max: 0.810074
smoothSolver:  Solving for Ux, Initial residual = 0.119395, Final residual = 9.22771e-06, No Iterations 85
smoothSolver:  Solving for Uy, Initial residual = 0.387341, Final residual = 9.95126e-06, No Iterations 97
DICPCG:  Solving for p, Initial residual = 0.766112, Final residual = 0.0373252, No Iterations 60
time step continuity errors : sum local = 4.88093e-05, global = 8.19219e-20, cumulative = 3.83194e-20
DICPCG:  Solving for p, Initial residual = 0.708291, Final residual = 8.5732e-07, No Iterations 173
time step continuity errors : sum local = 1.01942e-09, global = 5.36248e-20, cumulative = 9.19442e-20
ExecutionTime = 0.28 s  ClockTime = 0 s

Time = 0.003

Courant Number mean: 0.0890822 max: 0.927573
smoothSolver:  Solving for Ux, Initial residual = 0.0534655, Final residual = 9.19573e-06, No Iterations 73
smoothSolver:  Solving for Uy, Initial residual = 0.20705, Final residual = 9.68609e-06, No Iterations 89
DICPCG:  Solving for p, Initial residual = 0.798144, Final residual = 0.0360411, No Iterations 115
time step continuity errors : sum local = 4.47135e-05, global = 1.18483e-19, cumulative = 2.10428e-19
DICPCG:  Solving for p, Initial residual = 0.530709, Final residual = 9.40178e-07, No Iterations 166
time step continuity errors : sum local = 1.64664e-09, global = -1.67675e-20, cumulative = 1.9366e-19
ExecutionTime = 0.39 s  ClockTime = 1 s

Time = 0.004

Courant Number mean: 0.105674 max: 0.929129
smoothSolver:  Solving for Ux, Initial residual = 0.036898, Final residual = 9.02394e-06, No Iterations 73
smoothSolver:  Solving for Uy, Initial residual = 0.133622, Final residual = 9.64607e-06, No Iterations 85
DICPCG:  Solving for p, Initial residual = 0.691466, Final residual = 0.0306237, No Iterations 111
time step continuity errors : sum local = 3.28411e-05, global = 1.57694e-19, cumulative = 3.51354e-19
DICPCG:  Solving for p, Initial residual = 0.526918, Final residual = 9.67325e-07, No Iterations 169
time step continuity errors : sum local = 1.26581e-09, global = 1.27803e-19, cumulative = 4.79156e-19
ExecutionTime = 0.51 s  ClockTime = 1 s

Time = 0.005

Courant Number mean: 0.1186 max: 0.942493
smoothSolver:  Solving for Ux, Initial residual = 0.0236334, Final residual = 9.25828e-06, No Iterations 68
smoothSolver:  Solving for Uy, Initial residual = 0.0872635, Final residual = 9.77395e-06, No Iterations 84
DICPCG:  Solving for p, Initial residual = 0.658524, Final residual = 0.03131, No Iterations 107
time step continuity errors : sum local = 2.65193e-05, global = 4.71819e-20, cumulative = 5.26338e-19
DICPCG:  Solving for p, Initial residual = 0.537848, Final residual = 7.89523e-07, No Iterations 165
time step continuity errors : sum local = 7.77415e-10, global = 2.90284e-20, cumulative = 5.55366e-19
ExecutionTime = 0.62 s  ClockTime = 1 s

Time = 0.006

Courant Number mean: 0.128813 max: 0.946495
smoothSolver:  Solving for Ux, Initial residual = 0.0170169, Final residual = 9.67341e-06, No Iterations 68
smoothSolver:  Solving for Uy, Initial residual = 0.0680403, Final residual = 9.24084e-06, No Iterations 83
DICPCG:  Solving for p, Initial residual = 0.505055, Final residual = 0.0214323, No Iterations 113
time step continuity errors : sum local = 1.45429e-05, global = -6.60256e-20, cumulative = 4.89341e-19
DICPCG:  Solving for p, Initial residual = 0.426284, Final residual = 8.97112e-07, No Iterations 165
time step continuity errors : sum local = 6.72431e-10, global = 8.7512e-20, cumulative = 5.76853e-19
ExecutionTime = 0.74 s  ClockTime = 1 s

Time = 0.007

Courant Number mean: 0.137588 max: 0.952379
smoothSolver:  Solving for Ux, Initial residual = 0.0136294, Final residual = 9.68881e-06, No Iterations 65
smoothSolver:  Solving for Uy, Initial residual = 0.0384384, Final residual = 9.70738e-06, No Iterations 77
DICPCG:  Solving for p, Initial residual = 0.399441, Final residual = 0.0185692, No Iterations 99
time step continuity errors : sum local = 1.01695e-05, global = 1.58472e-19, cumulative = 7.35324e-19
DICPCG:  Solving for p, Initial residual = 0.348375, Final residual = 9.00472e-07, No Iterations 163
time step continuity errors : sum local = 5.29213e-10, global = 7.21366e-20, cumulative = 8.07461e-19
ExecutionTime = 0.86 s  ClockTime = 1 s

Time = 0.008

Courant Number mean: 0.14476 max: 0.952862
smoothSolver:  Solving for Ux, Initial residual = 0.0116129, Final residual = 9.81684e-06, No Iterations 66
smoothSolver:  Solving for Uy, Initial residual = 0.0320222, Final residual = 9.33617e-06, No Iterations 77
DICPCG:  Solving for p, Initial residual = 0.301663, Final residual = 0.0126515, No Iterations 106
time step continuity errors : sum local = 6.21718e-06, global = 1.27903e-19, cumulative = 9.35364e-19
DICPCG:  Solving for p, Initial residual = 0.265099, Final residual = 9.3118e-07, No Iterations 157
time step continuity errors : sum local = 4.86145e-10, global = 1.49306e-20, cumulative = 9.50295e-19
ExecutionTime = 0.97 s  ClockTime = 1 s

Time = 0.009

Courant Number mean: 0.151217 max: 0.956079
smoothSolver:  Solving for Ux, Initial residual = 0.0085026, Final residual = 9.78831e-06, No Iterations 62
smoothSolver:  Solving for Uy, Initial residual = 0.0231062, Final residual = 9.45669e-06, No Iterations 75
DICPCG:  Solving for p, Initial residual = 0.190507, Final residual = 0.00757409, No Iterations 94
time step continuity errors : sum local = 3.25997e-06, global = -1.8826e-19, cumulative = 7.62035e-19
DICPCG:  Solving for p, Initial residual = 0.170316, Final residual = 9.17566e-07, No Iterations 163
time step continuity errors : sum local = 4.07425e-10, global = 8.64961e-20, cumulative = 8.48531e-19
ExecutionTime = 1.07 s  ClockTime = 1 s

Time = 0.01

Courant Number mean: 0.156773 max: 0.956862
smoothSolver:  Solving for Ux, Initial residual = 0.00691577, Final residual = 9.19642e-06, No Iterations 62
smoothSolver:  Solving for Uy, Initial residual = 0.0210941, Final residual = 9.66331e-06, No Iterations 74
DICPCG:  Solving for p, Initial residual = 0.130224, Final residual = 0.00537121, No Iterations 93
time step continuity errors : sum local = 2.17977e-06, global = 5.78666e-20, cumulative = 9.06398e-19
DICPCG:  Solving for p, Initial residual = 0.117272, Final residual = 9.71561e-07, No Iterations 161
time step continuity errors : sum local = 4.05111e-10, global = -7.61296e-20, cumulative = 8.30268e-19
ExecutionTime = 1.18 s  ClockTime = 1 s

Time = 0.011

Courant Number mean: 0.161788 max: 0.958509
smoothSolver:  Solving for Ux, Initial residual = 0.00604506, Final residual = 9.10221e-06, No Iterations 61
smoothSolver:  Solving for Uy, Initial residual = 0.0166735, Final residual = 9.91885e-06, No Iterations 72
DICPCG:  Solving for p, Initial residual = 0.0869446, Final residual = 0.00415558, No Iterations 45
time step continuity errors : sum local = 1.85606e-06, global = -1.77038e-20, cumulative = 8.12564e-19
DICPCG:  Solving for p, Initial residual = 0.0805308, Final residual = 9.71509e-07, No Iterations 159
time step continuity errors : sum local = 3.78784e-10, global = 9.71715e-20, cumulative = 9.09736e-19
ExecutionTime = 1.27 s  ClockTime = 2 s

Time = 0.012

Courant Number mean: 0.166256 max: 0.959729
smoothSolver:  Solving for Ux, Initial residual = 0.00593268, Final residual = 9.47551e-06, No Iterations 61
smoothSolver:  Solving for Uy, Initial residual = 0.0147106, Final residual = 9.40006e-06, No Iterations 71
DICPCG:  Solving for p, Initial residual = 0.0845072, Final residual = 0.00407357, No Iterations 115
time step continuity errors : sum local = 1.60081e-06, global = 1.03008e-19, cumulative = 1.01274e-18
DICPCG:  Solving for p, Initial residual = 0.0743412, Final residual = 7.22034e-07, No Iterations 161
time step continuity errors : sum local = 3.06291e-10, global = 1.89008e-19, cumulative = 1.20175e-18
ExecutionTime = 1.39 s  ClockTime = 2 s

Time = 0.013

Courant Number mean: 0.170318 max: 0.96082
smoothSolver:  Solving for Ux, Initial residual = 0.00490916, Final residual = 9.17145e-06, No Iterations 59
smoothSolver:  Solving for Uy, Initial residual = 0.014262, Final residual = 9.35161e-06, No Iterations 71
DICPCG:  Solving for p, Initial residual = 0.0641681, Final residual = 0.00292691, No Iterations 111
time step continuity errors : sum local = 1.1225e-06, global = -7.7725e-20, cumulative = 1.12403e-18
DICPCG:  Solving for p, Initial residual = 0.0584473, Final residual = 8.72553e-07, No Iterations 159
time step continuity errors : sum local = 3.45949e-10, global = 8.11934e-20, cumulative = 1.20522e-18
ExecutionTime = 1.49 s  ClockTime = 2 s

Time = 0.014

Courant Number mean: 0.174002 max: 0.961764
smoothSolver:  Solving for Ux, Initial residual = 0.00425397, Final residual = 9.5083e-06, No Iterations 58
smoothSolver:  Solving for Uy, Initial residual = 0.0120433, Final residual = 9.85388e-06, No Iterations 69
DICPCG:  Solving for p, Initial residual = 0.047479, Final residual = 0.00235929, No Iterations 98
time step continuity errors : sum local = 8.99298e-07, global = -6.87297e-21, cumulative = 1.19835e-18
DICPCG:  Solving for p, Initial residual = 0.0439178, Final residual = 8.07848e-07, No Iterations 159
time step continuity errors : sum local = 3.09782e-10, global = -4.34015e-20, cumulative = 1.15495e-18
ExecutionTime = 1.6 s  ClockTime = 2 s

Time = 0.015

Courant Number mean: 0.177357 max: 0.962565
smoothSolver:  Solving for Ux, Initial residual = 0.00387883, Final residual = 9.84989e-06, No Iterations 57
smoothSolver:  Solving for Uy, Initial residual = 0.0108366, Final residual = 9.19354e-06, No Iterations 69
DICPCG:  Solving for p, Initial residual = 0.0380213, Final residual = 0.00178077, No Iterations 53
time step continuity errors : sum local = 7.56888e-07, global = 1.37516e-20, cumulative = 1.1687e-18
DICPCG:  Solving for p, Initial residual = 0.0356616, Final residual = 8.35852e-07, No Iterations 154
time step continuity errors : sum local = 3.13806e-10, global = -1.91239e-19, cumulative = 9.77459e-19
ExecutionTime = 1.7 s  ClockTime = 2 s

Time = 0.016

Courant Number mean: 0.180449 max: 0.963317
smoothSolver:  Solving for Ux, Initial residual = 0.00366668, Final residual = 9.47423e-06, No Iterations 57
smoothSolver:  Solving for Uy, Initial residual = 0.00979979, Final residual = 9.92824e-06, No Iterations 67
DICPCG:  Solving for p, Initial residual = 0.0343308, Final residual = 0.00153984, No Iterations 97
time step continuity errors : sum local = 5.77649e-07, global = -7.68368e-20, cumulative = 9.00622e-19
DICPCG:  Solving for p, Initial residual = 0.0313555, Final residual = 8.31644e-07, No Iterations 159
time step continuity errors : sum local = 3.22288e-10, global = -1.6067e-19, cumulative = 7.39952e-19
ExecutionTime = 1.81 s  ClockTime = 2 s

Time = 0.017

Courant Number mean: 0.183286 max: 0.963918
smoothSolver:  Solving for Ux, Initial residual = 0.00321762, Final residual = 9.08048e-06, No Iterations 56
smoothSolver:  Solving for Uy, Initial residual = 0.00927234, Final residual = 9.54875e-06, No Iterations 67
DICPCG:  Solving for p, Initial residual = 0.0265997, Final residual = 0.00125696, No Iterations 111
time step continuity errors : sum local = 4.6611e-07, global = 1.75022e-20, cumulative = 7.57455e-19
DICPCG:  Solving for p, Initial residual = 0.0247768, Final residual = 9.96399e-07, No Iterations 154
time step continuity errors : sum local = 3.7619e-10, global = -9.90962e-20, cumulative = 6.58358e-19
ExecutionTime = 1.91 s  ClockTime = 2 s

Time = 0.018

Courant Number mean: 0.185897 max: 0.964492
smoothSolver:  Solving for Ux, Initial residual = 0.00293911, Final residual = 9.57471e-06, No Iterations 55
smoothSolver:  Solving for Uy, Initial residual = 0.00816793, Final residual = 9.49267e-06, No Iterations 66
DICPCG:  Solving for p, Initial residual = 0.0200784, Final residual = 0.000983798, No Iterations 111
time step continuity errors : sum local = 3.6429e-07, global = 3.64088e-19, cumulative = 1.02245e-18
DICPCG:  Solving for p, Initial residual = 0.0185923, Final residual = 7.43547e-07, No Iterations 157
time step continuity errors : sum local = 2.76676e-10, global = -1.21945e-19, cumulative = 9.00501e-19
ExecutionTime = 2.01 s  ClockTime = 2 s

Time = 0.019

Courant Number mean: 0.188316 max: 0.96498
smoothSolver:  Solving for Ux, Initial residual = 0.00267847, Final residual = 9.77882e-06, No Iterations 54
smoothSolver:  Solving for Uy, Initial residual = 0.00751263, Final residual = 9.80512e-06, No Iterations 65
DICPCG:  Solving for p, Initial residual = 0.0201431, Final residual = 0.000984452, No Iterations 111
time step continuity errors : sum local = 3.6373e-07, global = 2.55369e-19, cumulative = 1.15587e-18
DICPCG:  Solving for p, Initial residual = 0.0189003, Final residual = 8.487e-07, No Iterations 156
time step continuity errors : sum local = 3.14305e-10, global = -6.62438e-20, cumulative = 1.08963e-18
ExecutionTime = 2.12 s  ClockTime = 2 s

Time = 0.02

Courant Number mean: 0.19056 max: 0.965437
smoothSolver:  Solving for Ux, Initial residual = 0.00245865, Final residual = 9.11468e-06, No Iterations 54
smoothSolver:  Solving for Uy, Initial residual = 0.00689881, Final residual = 9.98605e-06, No Iterations 64
DICPCG:  Solving for p, Initial residual = 0.0167081, Final residual = 0.000560937, No Iterations 113
time step continuity errors : sum local = 2.06975e-07, global = -2.65655e-19, cumulative = 8.23971e-19
DICPCG:  Solving for p, Initial residual = 0.0157843, Final residual = 8.82975e-07, No Iterations 148
time step continuity errors : sum local = 3.27142e-10, global = 4.32335e-19, cumulative = 1.25631e-18
ExecutionTime = 2.22 s  ClockTime = 3 s

Time = 0.021

Courant Number mean: 0.192643 max: 0.965859
smoothSolver:  Solving for Ux, Initial residual = 0.00228084, Final residual = 9.43588e-06, No Iterations 53
smoothSolver:  Solving for Uy, Initial residual = 0.00637179, Final residual = 9.2918e-06, No Iterations 64
DICPCG:  Solving for p, Initial residual = 0.012415, Final residual = 0.000611164, No Iterations 53
time step continuity errors : sum local = 2.40109e-07, global = -6.98073e-20, cumulative = 1.1865e-18
DICPCG:  Solving for p, Initial residual = 0.0118164, Final residual = 9.95791e-07, No Iterations 151
time step continuity errors : sum local = 3.6605e-10, global = -5.54572e-20, cumulative = 1.13104e-18
ExecutionTime = 2.32 s  ClockTime = 3 s

Time = 0.022

Courant Number mean: 0.19458 max: 0.966215
smoothSolver:  Solving for Ux, Initial residual = 0.00212403, Final residual = 9.82727e-06, No Iterations 52
smoothSolver:  Solving for Uy, Initial residual = 0.00592033, Final residual = 9.5077e-06, No Iterations 63
DICPCG:  Solving for p, Initial residual = 0.013705, Final residual = 0.000585415, No Iterations 96
time step continuity errors : sum local = 2.1608e-07, global = 1.11775e-19, cumulative = 1.24282e-18
DICPCG:  Solving for p, Initial residual = 0.0130097, Final residual = 8.52505e-07, No Iterations 148
time step continuity errors : sum local = 3.15838e-10, global = -6.73475e-20, cumulative = 1.17547e-18
ExecutionTime = 2.42 s  ClockTime = 3 s

Time = 0.023

Courant Number mean: 0.196381 max: 0.966558
smoothSolver:  Solving for Ux, Initial residual = 0.00197696, Final residual = 9.17132e-06, No Iterations 52
smoothSolver:  Solving for Uy, Initial residual = 0.00553156, Final residual = 9.87538e-06, No Iterations 62
DICPCG:  Solving for p, Initial residual = 0.010554, Final residual = 0.000432321, No Iterations 113
time step continuity errors : sum local = 1.5885e-07, global = -1.47642e-19, cumulative = 1.02783e-18
DICPCG:  Solving for p, Initial residual = 0.0100142, Final residual = 9.6088e-07, No Iterations 150
time step continuity errors : sum local = 3.53401e-10, global = -1.0148e-19, cumulative = 9.26348e-19
ExecutionTime = 2.52 s  ClockTime = 3 s

Time = 0.024

Courant Number mean: 0.198068 max: 0.966868
smoothSolver:  Solving for Ux, Initial residual = 0.00182236, Final residual = 9.46144e-06, No Iterations 51
smoothSolver:  Solving for Uy, Initial residual = 0.0051291, Final residual = 9.17233e-06, No Iterations 62
DICPCG:  Solving for p, Initial residual = 0.0090829, Final residual = 0.000423352, No Iterations 108
time step continuity errors : sum local = 1.5589e-07, global = 2.22683e-19, cumulative = 1.14903e-18
DICPCG:  Solving for p, Initial residual = 0.00868973, Final residual = 8.42195e-07, No Iterations 148
time step continuity errors : sum local = 3.09616e-10, global = 5.51048e-20, cumulative = 1.20414e-18
ExecutionTime = 2.63 s  ClockTime = 3 s

Time = 0.025

Courant Number mean: 0.199643 max: 0.967137
smoothSolver:  Solving for Ux, Initial residual = 0.00170173, Final residual = 9.84763e-06, No Iterations 50
smoothSolver:  Solving for Uy, Initial residual = 0.00477241, Final residual = 9.50681e-06, No Iterations 61
DICPCG:  Solving for p, Initial residual = 0.00928991, Final residual = 0.000408433, No Iterations 53
time step continuity errors : sum local = 1.69074e-07, global = 1.38586e-19, cumulative = 1.34272e-18
DICPCG:  Solving for p, Initial residual = 0.00889049, Final residual = 8.98094e-07, No Iterations 149
time step continuity errors : sum local = 3.29793e-10, global = 1.55548e-19, cumulative = 1.49827e-18
ExecutionTime = 2.71 s  ClockTime = 3 s

Time = 0.026

Courant Number mean: 0.201117 max: 0.967386
smoothSolver:  Solving for Ux, Initial residual = 0.00161772, Final residual = 9.36671e-06, No Iterations 50
smoothSolver:  Solving for Uy, Initial residual = 0.00446719, Final residual = 9.73835e-06, No Iterations 60
DICPCG:  Solving for p, Initial residual = 0.00963074, Final residual = 0.000430799, No Iterations 85
time step continuity errors : sum local = 1.59376e-07, global = 1.01354e-19, cumulative = 1.59962e-18
DICPCG:  Solving for p, Initial residual = 0.00926129, Final residual = 7.88949e-07, No Iterations 139
time step continuity errors : sum local = 2.91772e-10, global = -9.11095e-20, cumulative = 1.50852e-18
ExecutionTime = 2.81 s  ClockTime = 3 s

Time = 0.027

Courant Number mean: 0.202497 max: 0.967629
smoothSolver:  Solving for Ux, Initial residual = 0.00147555, Final residual = 9.45195e-06, No Iterations 49
smoothSolver:  Solving for Uy, Initial residual = 0.00429908, Final residual = 9.37894e-06, No Iterations 60
DICPCG:  Solving for p, Initial residual = 0.00914734, Final residual = 0.00043607, No Iterations 114
time step continuity errors : sum local = 1.60242e-07, global = 2.67058e-20, cumulative = 1.53522e-18
DICPCG:  Solving for p, Initial residual = 0.00873961, Final residual = 8.60066e-07, No Iterations 151
time step continuity errors : sum local = 3.17204e-10, global = 1.78034e-20, cumulative = 1.55302e-18
ExecutionTime = 2.91 s  ClockTime = 3 s

Time = 0.028

Courant Number mean: 0.20379 max: 0.967838
smoothSolver:  Solving for Ux, Initial residual = 0.00140124, Final residual = 9.07505e-06, No Iterations 49
smoothSolver:  Solving for Uy, Initial residual = 0.00390705, Final residual = 9.4864e-06, No Iterations 59
DICPCG:  Solving for p, Initial residual = 0.00745494, Final residual = 0.00033624, No Iterations 108
time step continuity errors : sum local = 1.23794e-07, global = -7.05091e-20, cumulative = 1.48252e-18
DICPCG:  Solving for p, Initial residual = 0.00711691, Final residual = 8.863e-07, No Iterations 149
time step continuity errors : sum local = 3.25745e-10, global = -1.25106e-19, cumulative = 1.35741e-18
ExecutionTime = 3.02 s  ClockTime = 3 s

Time = 0.029

Courant Number mean: 0.205 max: 0.968024
smoothSolver:  Solving for Ux, Initial residual = 0.00131407, Final residual = 9.47414e-06, No Iterations 48
smoothSolver:  Solving for Uy, Initial residual = 0.00362701, Final residual = 9.84033e-06, No Iterations 58
DICPCG:  Solving for p, Initial residual = 0.00724066, Final residual = 0.000322671, No Iterations 53
time step continuity errors : sum local = 1.23104e-07, global = -1.32597e-19, cumulative = 1.22481e-18
DICPCG:  Solving for p, Initial residual = 0.00692328, Final residual = 9.96866e-07, No Iterations 148
time step continuity errors : sum local = 3.65748e-10, global = 2.51512e-19, cumulative = 1.47632e-18
ExecutionTime = 3.11 s  ClockTime = 4 s

Time = 0.03

Courant Number mean: 0.206136 max: 0.968196
smoothSolver:  Solving for Ux, Initial residual = 0.00123841, Final residual = 9.91465e-06, No Iterations 47
smoothSolver:  Solving for Uy, Initial residual = 0.00340485, Final residual = 9.21158e-06, No Iterations 58
DICPCG:  Solving for p, Initial residual = 0.00643124, Final residual = 0.000319889, No Iterations 95
time step continuity errors : sum local = 1.17559e-07, global = -1.89145e-19, cumulative = 1.28718e-18
DICPCG:  Solving for p, Initial residual = 0.00612357, Final residual = 8.98778e-07, No Iterations 146
time step continuity errors : sum local = 3.31067e-10, global = 5.41684e-20, cumulative = 1.34135e-18
ExecutionTime = 3.2 s  ClockTime = 4 s

Time = 0.031

Courant Number mean: 0.207206 max: 0.968365
smoothSolver:  Solving for Ux, Initial residual = 0.001145, Final residual = 9.19139e-06, No Iterations 47
smoothSolver:  Solving for Uy, Initial residual = 0.0032564, Final residual = 9.75395e-06, No Iterations 57
DICPCG:  Solving for p, Initial residual = 0.00559527, Final residual = 0.000272045, No Iterations 55
time step continuity errors : sum local = 1.17711e-07, global = -5.7962e-20, cumulative = 1.28339e-18
DICPCG:  Solving for p, Initial residual = 0.00533903, Final residual = 7.45187e-07, No Iterations 148
time step continuity errors : sum local = 2.73385e-10, global = -1.53259e-19, cumulative = 1.13013e-18
ExecutionTime = 3.29 s  ClockTime = 4 s

Time = 0.032

Courant Number mean: 0.208214 max: 0.96852
smoothSolver:  Solving for Ux, Initial residual = 0.00111913, Final residual = 9.93254e-06, No Iterations 46
smoothSolver:  Solving for Uy, Initial residual = 0.00300922, Final residual = 9.86269e-06, No Iterations 56
DICPCG:  Solving for p, Initial residual = 0.00710054, Final residual = 0.000311628, No Iterations 115
time step continuity errors : sum local = 1.14616e-07, global = 1.87887e-19, cumulative = 1.31801e-18
DICPCG:  Solving for p, Initial residual = 0.00679548, Final residual = 9.3406e-07, No Iterations 151
time step continuity errors : sum local = 3.45232e-10, global = -8.39708e-20, cumulative = 1.23404e-18
ExecutionTime = 3.39 s  ClockTime = 4 s

Time = 0.033

Courant Number mean: 0.209162 max: 0.968666
smoothSolver:  Solving for Ux, Initial residual = 0.00102291, Final residual = 9.98182e-06, No Iterations 45
smoothSolver:  Solving for Uy, Initial residual = 0.00292778, Final residual = 9.60882e-06, No Iterations 56
DICPCG:  Solving for p, Initial residual = 0.00633499, Final residual = 0.000310545, No Iterations 114
time step continuity errors : sum local = 1.14081e-07, global = 1.35736e-20, cumulative = 1.24762e-18
DICPCG:  Solving for p, Initial residual = 0.00599206, Final residual = 8.58016e-07, No Iterations 150
time step continuity errors : sum local = 3.16193e-10, global = 1.79144e-19, cumulative = 1.42676e-18
ExecutionTime = 3.5 s  ClockTime = 4 s

Time = 0.034

Courant Number mean: 0.210055 max: 0.968794
smoothSolver:  Solving for Ux, Initial residual = 0.000960338, Final residual = 9.51408e-06, No Iterations 45
smoothSolver:  Solving for Uy, Initial residual = 0.00270455, Final residual = 9.89456e-06, No Iterations 55
DICPCG:  Solving for p, Initial residual = 0.0054653, Final residual = 0.000272419, No Iterations 113
time step continuity errors : sum local = 1.00157e-07, global = 8.71484e-20, cumulative = 1.51391e-18
DICPCG:  Solving for p, Initial residual = 0.00522854, Final residual = 8.91455e-07, No Iterations 148
time step continuity errors : sum local = 3.27629e-10, global = -1.30344e-19, cumulative = 1.38356e-18
ExecutionTime = 3.6 s  ClockTime = 4 s

Time = 0.035

Courant Number mean: 0.210895 max: 0.968911
smoothSolver:  Solving for Ux, Initial residual = 0.000900491, Final residual = 9.9232e-06, No Iterations 44
smoothSolver:  Solving for Uy, Initial residual = 0.00254613, Final residual = 9.37277e-06, No Iterations 55
DICPCG:  Solving for p, Initial residual = 0.00490768, Final residual = 0.000231735, No Iterations 113
time step continuity errors : sum local = 8.49993e-08, global = 1.9735e-19, cumulative = 1.58091e-18
DICPCG:  Solving for p, Initial residual = 0.00468041, Final residual = 7.77029e-07, No Iterations 148
time step continuity errors : sum local = 2.85276e-10, global = 2.43434e-19, cumulative = 1.82435e-18
ExecutionTime = 3.7 s  ClockTime = 4 s

Time = 0.036

Courant Number mean: 0.211687 max: 0.969024
smoothSolver:  Solving for Ux, Initial residual = 0.000847701, Final residual = 9.37932e-06, No Iterations 44
smoothSolver:  Solving for Uy, Initial residual = 0.00239467, Final residual = 9.7638e-06, No Iterations 54
DICPCG:  Solving for p, Initial residual = 0.00429563, Final residual = 0.000189053, No Iterations 112
time step continuity errors : sum local = 6.9604e-08, global = 1.54281e-19, cumulative = 1.97863e-18
DICPCG:  Solving for p, Initial residual = 0.00412968, Final residual = 9.01672e-07, No Iterations 146
time step continuity errors : sum local = 3.30822e-10, global = 1.25032e-19, cumulative = 2.10366e-18
ExecutionTime = 3.79 s  ClockTime = 4 s

Time = 0.037

Courant Number mean: 0.212435 max: 0.969126
smoothSolver:  Solving for Ux, Initial residual = 0.00079961, Final residual = 9.81708e-06, No Iterations 43
smoothSolver:  Solving for Uy, Initial residual = 0.00225763, Final residual = 9.22823e-06, No Iterations 54
DICPCG:  Solving for p, Initial residual = 0.00411202, Final residual = 0.000198241, No Iterations 52
time step continuity errors : sum local = 8.04478e-08, global = 5.25587e-20, cumulative = 2.15622e-18
DICPCG:  Solving for p, Initial residual = 0.00394469, Final residual = 9.46995e-07, No Iterations 144
time step continuity errors : sum local = 3.47306e-10, global = 2.28174e-19, cumulative = 2.38439e-18
ExecutionTime = 3.89 s  ClockTime = 4 s

Time = 0.038

Courant Number mean: 0.213139 max: 0.969222
smoothSolver:  Solving for Ux, Initial residual = 0.000763796, Final residual = 9.35704e-06, No Iterations 43
smoothSolver:  Solving for Uy, Initial residual = 0.00213184, Final residual = 9.57243e-06, No Iterations 53
DICPCG:  Solving for p, Initial residual = 0.00428514, Final residual = 0.000200293, No Iterations 97
time step continuity errors : sum local = 7.35809e-08, global = -1.06512e-19, cumulative = 2.27788e-18
DICPCG:  Solving for p, Initial residual = 0.00408715, Final residual = 8.72527e-07, No Iterations 149
time step continuity errors : sum local = 3.20975e-10, global = -1.83263e-19, cumulative = 2.09462e-18
ExecutionTime = 3.98 s  ClockTime = 4 s

Time = 0.039

Courant Number mean: 0.213804 max: 0.969313
smoothSolver:  Solving for Ux, Initial residual = 0.000710562, Final residual = 9.62476e-06, No Iterations 42
smoothSolver:  Solving for Uy, Initial residual = 0.00204115, Final residual = 9.15682e-06, No Iterations 53
DICPCG:  Solving for p, Initial residual = 0.00387786, Final residual = 0.000189987, No Iterations 107
time step continuity errors : sum local = 6.97603e-08, global = 9.49885e-20, cumulative = 2.18961e-18
DICPCG:  Solving for p, Initial residual = 0.0036901, Final residual = 9.01216e-07, No Iterations 141
time step continuity errors : sum local = 3.30813e-10, global = 4.84949e-20, cumulative = 2.2381e-18
ExecutionTime = 4.08 s  ClockTime = 5 s

Time = 0.04

Courant Number mean: 0.21443 max: 0.96939
smoothSolver:  Solving for Ux, Initial residual = 0.00067539, Final residual = 9.20227e-06, No Iterations 42
smoothSolver:  Solving for Uy, Initial residual = 0.00190439, Final residual = 9.50966e-06, No Iterations 52
DICPCG:  Solving for p, Initial residual = 0.00331834, Final residual = 0.000161895, No Iterations 111
time step continuity errors : sum local = 5.93283e-08, global = -4.56036e-20, cumulative = 2.1925e-18
DICPCG:  Solving for p, Initial residual = 0.0031524, Final residual = 8.63035e-07, No Iterations 139
time step continuity errors : sum local = 3.16128e-10, global = 1.18684e-19, cumulative = 2.31118e-18
ExecutionTime = 4.17 s  ClockTime = 5 s

Time = 0.041

Courant Number mean: 0.215022 max: 0.969469
smoothSolver:  Solving for Ux, Initial residual = 0.00063541, Final residual = 9.62277e-06, No Iterations 41
smoothSolver:  Solving for Uy, Initial residual = 0.00180025, Final residual = 9.98531e-06, No Iterations 51
DICPCG:  Solving for p, Initial residual = 0.00327027, Final residual = 0.000152874, No Iterations 54
time step continuity errors : sum local = 6.15195e-08, global = 3.056e-19, cumulative = 2.61678e-18
DICPCG:  Solving for p, Initial residual = 0.00311792, Final residual = 9.72979e-07, No Iterations 144
time step continuity errors : sum local = 3.56975e-10, global = 2.9216e-19, cumulative = 2.90894e-18
ExecutionTime = 4.27 s  ClockTime = 5 s

Time = 0.042

Courant Number mean: 0.215581 max: 0.969542
smoothSolver:  Solving for Ux, Initial residual = 0.000609228, Final residual = 9.20999e-06, No Iterations 41
smoothSolver:  Solving for Uy, Initial residual = 0.00169138, Final residual = 9.34181e-06, No Iterations 51
DICPCG:  Solving for p, Initial residual = 0.00313253, Final residual = 0.000147368, No Iterations 95
time step continuity errors : sum local = 5.41829e-08, global = -1.24263e-19, cumulative = 2.78468e-18
DICPCG:  Solving for p, Initial residual = 0.0029863, Final residual = 9.36188e-07, No Iterations 146
time step continuity errors : sum local = 3.43722e-10, global = 5.35343e-20, cumulative = 2.83821e-18
ExecutionTime = 4.36 s  ClockTime = 5 s

Time = 0.043

Courant Number mean: 0.21611 max: 0.96961
smoothSolver:  Solving for Ux, Initial residual = 0.000570058, Final residual = 9.53273e-06, No Iterations 40
smoothSolver:  Solving for Uy, Initial residual = 0.00162608, Final residual = 9.93491e-06, No Iterations 50
DICPCG:  Solving for p, Initial residual = 0.00277549, Final residual = 0.000129872, No Iterations 111
time step continuity errors : sum local = 4.76012e-08, global = 1.58175e-20, cumulative = 2.85403e-18
DICPCG:  Solving for p, Initial residual = 0.00266118, Final residual = 9.17206e-07, No Iterations 141
time step continuity errors : sum local = 3.37868e-10, global = 1.58291e-19, cumulative = 3.01232e-18
ExecutionTime = 4.45 s  ClockTime = 5 s

Time = 0.044

Courant Number mean: 0.21661 max: 0.969674
smoothSolver:  Solving for Ux, Initial residual = 0.000538737, Final residual = 9.06207e-06, No Iterations 40
smoothSolver:  Solving for Uy, Initial residual = 0.00152122, Final residual = 9.33299e-06, No Iterations 50
DICPCG:  Solving for p, Initial residual = 0.00265849, Final residual = 0.000132034, No Iterations 107
time step continuity errors : sum local = 4.85384e-08, global = -3.92986e-20, cumulative = 2.97302e-18
DICPCG:  Solving for p, Initial residual = 0.00254564, Final residual = 8.35821e-07, No Iterations 145
time step continuity errors : sum local = 3.06298e-10, global = 5.73748e-20, cumulative = 3.0304e-18
ExecutionTime = 4.54 s  ClockTime = 5 s

Time = 0.045

Courant Number mean: 0.217084 max: 0.969729
smoothSolver:  Solving for Ux, Initial residual = 0.000507878, Final residual = 9.47643e-06, No Iterations 39
smoothSolver:  Solving for Uy, Initial residual = 0.0014428, Final residual = 9.818e-06, No Iterations 49
DICPCG:  Solving for p, Initial residual = 0.00251859, Final residual = 0.000120772, No Iterations 98
time step continuity errors : sum local = 4.43762e-08, global = 1.55828e-19, cumulative = 3.18623e-18
DICPCG:  Solving for p, Initial residual = 0.00239834, Final residual = 8.03443e-07, No Iterations 143
time step continuity errors : sum local = 2.95415e-10, global = 5.04111e-20, cumulative = 3.23664e-18
ExecutionTime = 4.64 s  ClockTime = 5 s

Time = 0.046

Courant Number mean: 0.217532 max: 0.969785
smoothSolver:  Solving for Ux, Initial residual = 0.000482482, Final residual = 9.9885e-06, No Iterations 38
smoothSolver:  Solving for Uy, Initial residual = 0.00136895, Final residual = 9.31616e-06, No Iterations 49
DICPCG:  Solving for p, Initial residual = 0.00239736, Final residual = 0.000107909, No Iterations 109
time step continuity errors : sum local = 3.95525e-08, global = -6.09129e-20, cumulative = 3.17572e-18
DICPCG:  Solving for p, Initial residual = 0.00229689, Final residual = 7.31659e-07, No Iterations 139
time step continuity errors : sum local = 2.68896e-10, global = 7.98342e-20, cumulative = 3.25556e-18
ExecutionTime = 4.73 s  ClockTime = 5 s

Time = 0.047

Courant Number mean: 0.217956 max: 0.969842
smoothSolver:  Solving for Ux, Initial residual = 0.000456371, Final residual = 9.44547e-06, No Iterations 38
smoothSolver:  Solving for Uy, Initial residual = 0.00129219, Final residual = 9.73281e-06, No Iterations 48
DICPCG:  Solving for p, Initial residual = 0.00212161, Final residual = 8.31153e-05, No Iterations 53
time step continuity errors : sum local = 3.32961e-08, global = -1.50524e-19, cumulative = 3.10503e-18
DICPCG:  Solving for p, Initial residual = 0.00204283, Final residual = 8.07306e-07, No Iterations 143
time step continuity errors : sum local = 2.95751e-10, global = -8.77966e-20, cumulative = 3.01724e-18
ExecutionTime = 4.82 s  ClockTime = 5 s

Time = 0.048

Courant Number mean: 0.218356 max: 0.969883
smoothSolver:  Solving for Ux, Initial residual = 0.000434289, Final residual = 9.94693e-06, No Iterations 37
smoothSolver:  Solving for Uy, Initial residual = 0.00122262, Final residual = 9.19918e-06, No Iterations 48
DICPCG:  Solving for p, Initial residual = 0.00225651, Final residual = 0.000112245, No Iterations 97
time step continuity errors : sum local = 4.12108e-08, global = 1.48745e-19, cumulative = 3.16598e-18
DICPCG:  Solving for p, Initial residual = 0.00217723, Final residual = 9.52496e-07, No Iterations 143
time step continuity errors : sum local = 3.49421e-10, global = 3.42776e-19, cumulative = 3.50876e-18
ExecutionTime = 4.92 s  ClockTime = 5 s

Time = 0.049

Courant Number mean: 0.218736 max: 0.96993
smoothSolver:  Solving for Ux, Initial residual = 0.000408393, Final residual = 9.34839e-06, No Iterations 37
smoothSolver:  Solving for Uy, Initial residual = 0.00116826, Final residual = 9.70925e-06, No Iterations 47
DICPCG:  Solving for p, Initial residual = 0.00212513, Final residual = 0.000101732, No Iterations 94
time step continuity errors : sum local = 3.76064e-08, global = -7.37348e-20, cumulative = 3.43502e-18
DICPCG:  Solving for p, Initial residual = 0.00203433, Final residual = 9.26245e-07, No Iterations 138
time step continuity errors : sum local = 3.41028e-10, global = 2.01957e-19, cumulative = 3.63698e-18
ExecutionTime = 5 s  ClockTime = 6 s

Time = 0.05

Courant Number mean: 0.219095 max: 0.969966
smoothSolver:  Solving for Ux, Initial residual = 0.000390284, Final residual = 9.90124e-06, No Iterations 36
smoothSolver:  Solving for Uy, Initial residual = 0.00109965, Final residual = 9.16312e-06, No Iterations 47
DICPCG:  Solving for p, Initial residual = 0.0019135, Final residual = 9.49684e-05, No Iterations 53
time step continuity errors : sum local = 3.73617e-08, global = -4.42605e-20, cumulative = 3.59272e-18
DICPCG:  Solving for p, Initial residual = 0.00184156, Final residual = 9.97001e-07, No Iterations 137
time step continuity errors : sum local = 3.65843e-10, global = 2.7719e-20, cumulative = 3.62044e-18
ExecutionTime = 5.09 s  ClockTime = 6 s

Time = 0.051

Courant Number mean: 0.219435 max: 0.970008
smoothSolver:  Solving for Ux, Initial residual = 0.000362015, Final residual = 9.18609e-06, No Iterations 36
smoothSolver:  Solving for Uy, Initial residual = 0.0010651, Final residual = 9.79167e-06, No Iterations 46
DICPCG:  Solving for p, Initial residual = 0.00198031, Final residual = 9.17047e-05, No Iterations 113
time step continuity errors : sum local = 3.36658e-08, global = -2.33172e-19, cumulative = 3.38727e-18
DICPCG:  Solving for p, Initial residual = 0.00190056, Final residual = 8.98538e-07, No Iterations 138
time step continuity errors : sum local = 3.30268e-10, global = 2.50689e-19, cumulative = 3.63796e-18
ExecutionTime = 5.18 s  ClockTime = 6 s

Time = 0.052

Courant Number mean: 0.219757 max: 0.970045
smoothSolver:  Solving for Ux, Initial residual = 0.000353067, Final residual = 9.90991e-06, No Iterations 35
smoothSolver:  Solving for Uy, Initial residual = 0.000989606, Final residual = 9.08561e-06, No Iterations 46
DICPCG:  Solving for p, Initial residual = 0.0018302, Final residual = 8.71445e-05, No Iterations 98
time step continuity errors : sum local = 3.19322e-08, global = -7.68549e-20, cumulative = 3.5611e-18
DICPCG:  Solving for p, Initial residual = 0.00175805, Final residual = 9.91929e-07, No Iterations 143
time step continuity errors : sum local = 3.63674e-10, global = -1.73218e-19, cumulative = 3.38788e-18
ExecutionTime = 5.28 s  ClockTime = 6 s

Time = 0.053

Courant Number mean: 0.220061 max: 0.970081
smoothSolver:  Solving for Ux, Initial residual = 0.000330107, Final residual = 9.30325e-06, No Iterations 35
smoothSolver:  Solving for Uy, Initial residual = 0.000943605, Final residual = 9.62806e-06, No Iterations 45
DICPCG:  Solving for p, Initial residual = 0.00166829, Final residual = 8.25757e-05, No Iterations 94
time step continuity errors : sum local = 3.08138e-08, global = 1.97694e-19, cumulative = 3.58558e-18
DICPCG:  Solving for p, Initial residual = 0.00158856, Final residual = 9.84849e-07, No Iterations 135
time step continuity errors : sum local = 3.62892e-10, global = -7.71705e-20, cumulative = 3.50841e-18
ExecutionTime = 5.36 s  ClockTime = 6 s

Time = 0.054

Courant Number mean: 0.22035 max: 0.970111
smoothSolver:  Solving for Ux, Initial residual = 0.000315891, Final residual = 9.85239e-06, No Iterations 34
smoothSolver:  Solving for Uy, Initial residual = 0.000887787, Final residual = 9.08048e-06, No Iterations 45
DICPCG:  Solving for p, Initial residual = 0.00153995, Final residual = 6.99517e-05, No Iterations 53
time step continuity errors : sum local = 2.69033e-08, global = 1.28361e-19, cumulative = 3.63677e-18
DICPCG:  Solving for p, Initial residual = 0.00148743, Final residual = 7.2863e-07, No Iterations 139
time step continuity errors : sum local = 2.67645e-10, global = 2.66727e-21, cumulative = 3.63944e-18
ExecutionTime = 5.44 s  ClockTime = 6 s

Time = 0.055

Courant Number mean: 0.220624 max: 0.97014
smoothSolver:  Solving for Ux, Initial residual = 0.00029809, Final residual = 9.31901e-06, No Iterations 34
smoothSolver:  Solving for Uy, Initial residual = 0.000845978, Final residual = 9.57476e-06, No Iterations 44
DICPCG:  Solving for p, Initial residual = 0.00147335, Final residual = 7.19819e-05, No Iterations 112
time step continuity errors : sum local = 2.64163e-08, global = -1.3411e-19, cumulative = 3.50533e-18
DICPCG:  Solving for p, Initial residual = 0.00142121, Final residual = 9.54168e-07, No Iterations 136
time step continuity errors : sum local = 3.49637e-10, global = 1.03342e-19, cumulative = 3.60867e-18
ExecutionTime = 5.54 s  ClockTime = 6 s

Time = 0.056

Courant Number mean: 0.220883 max: 0.970173
smoothSolver:  Solving for Ux, Initial residual = 0.000283047, Final residual = 9.80856e-06, No Iterations 33
smoothSolver:  Solving for Uy, Initial residual = 0.000802075, Final residual = 9.08812e-06, No Iterations 44
DICPCG:  Solving for p, Initial residual = 0.00134588, Final residual = 6.53118e-05, No Iterations 64
time step continuity errors : sum local = 2.7793e-08, global = 6.28914e-20, cumulative = 3.67156e-18
DICPCG:  Solving for p, Initial residual = 0.00129265, Final residual = 8.66751e-07, No Iterations 140
time step continuity errors : sum local = 3.18425e-10, global = 1.23146e-19, cumulative = 3.7947e-18
ExecutionTime = 5.63 s  ClockTime = 6 s

Time = 0.057

Courant Number mean: 0.221129 max: 0.970198
smoothSolver:  Solving for Ux, Initial residual = 0.000278877, Final residual = 9.59382e-06, No Iterations 33
smoothSolver:  Solving for Uy, Initial residual = 0.000750034, Final residual = 9.32919e-06, No Iterations 43
DICPCG:  Solving for p, Initial residual = 0.00164332, Final residual = 7.64871e-05, No Iterations 112
time step continuity errors : sum local = 2.80456e-08, global = -1.16957e-19, cumulative = 3.67775e-18
DICPCG:  Solving for p, Initial residual = 0.00158526, Final residual = 8.53914e-07, No Iterations 139
time step continuity errors : sum local = 3.13333e-10, global = 1.55969e-19, cumulative = 3.83372e-18
ExecutionTime = 5.71 s  ClockTime = 6 s

Time = 0.058

Courant Number mean: 0.221361 max: 0.970225
smoothSolver:  Solving for Ux, Initial residual = 0.000255888, Final residual = 9.69973e-06, No Iterations 32
smoothSolver:  Solving for Uy, Initial residual = 0.000739884, Final residual = 9.1578e-06, No Iterations 43
DICPCG:  Solving for p, Initial residual = 0.00148404, Final residual = 7.0153e-05, No Iterations 94
time step continuity errors : sum local = 2.57224e-08, global = -3.6933e-19, cumulative = 3.46439e-18
DICPCG:  Solving for p, Initial residual = 0.00141831, Final residual = 9.12496e-07, No Iterations 138
time step continuity errors : sum local = 3.3477e-10, global = 1.40157e-19, cumulative = 3.60454e-18
ExecutionTime = 5.8 s  ClockTime = 6 s

Time = 0.059

Courant Number mean: 0.221582 max: 0.970247
smoothSolver:  Solving for Ux, Initial residual = 0.000244761, Final residual = 9.35987e-06, No Iterations 32
smoothSolver:  Solving for Uy, Initial residual = 0.000688515, Final residual = 9.5143e-06, No Iterations 42
DICPCG:  Solving for p, Initial residual = 0.00123356, Final residual = 6.0234e-05, No Iterations 109
time step continuity errors : sum local = 2.21106e-08, global = 2.38115e-19, cumulative = 3.84266e-18
DICPCG:  Solving for p, Initial residual = 0.00118079, Final residual = 8.76507e-07, No Iterations 133
time step continuity errors : sum local = 3.2128e-10, global = 2.07812e-20, cumulative = 3.86344e-18
ExecutionTime = 5.9 s  ClockTime = 7 s

Time = 0.06

Courant Number mean: 0.221791 max: 0.970269
smoothSolver:  Solving for Ux, Initial residual = 0.000230105, Final residual = 9.77992e-06, No Iterations 31
smoothSolver:  Solving for Uy, Initial residual = 0.000653437, Final residual = 9.05981e-06, No Iterations 42
DICPCG:  Solving for p, Initial residual = 0.00112496, Final residual = 5.41465e-05, No Iterations 92
time step continuity errors : sum local = 2.00875e-08, global = -1.02678e-19, cumulative = 3.76076e-18
DICPCG:  Solving for p, Initial residual = 0.00108528, Final residual = 8.50676e-07, No Iterations 133
time step continuity errors : sum local = 3.13009e-10, global = 9.89391e-20, cumulative = 3.8597e-18
ExecutionTime = 5.98 s  ClockTime = 7 s

Time = 0.061

Courant Number mean: 0.22199 max: 0.970291
smoothSolver:  Solving for Ux, Initial residual = 0.000219397, Final residual = 9.32988e-06, No Iterations 31
smoothSolver:  Solving for Uy, Initial residual = 0.000617717, Final residual = 9.49358e-06, No Iterations 41
DICPCG:  Solving for p, Initial residual = 0.00114955, Final residual = 5.4038e-05, No Iterations 55
time step continuity errors : sum local = 2.03809e-08, global = 2.76572e-20, cumulative = 3.88736e-18
DICPCG:  Solving for p, Initial residual = 0.00111181, Final residual = 9.15704e-07, No Iterations 137
time step continuity errors : sum local = 3.36242e-10, global = -5.45202e-20, cumulative = 3.83284e-18
ExecutionTime = 6.06 s  ClockTime = 7 s

Time = 0.062

Courant Number mean: 0.222178 max: 0.970308
smoothSolver:  Solving for Ux, Initial residual = 0.000206596, Final residual = 9.71506e-06, No Iterations 30
smoothSolver:  Solving for Uy, Initial residual = 0.000593624, Final residual = 9.11108e-06, No Iterations 41
DICPCG:  Solving for p, Initial residual = 0.000983626, Final residual = 4.42437e-05, No Iterations 111
time step continuity errors : sum local = 1.62857e-08, global = 8.06303e-20, cumulative = 3.91347e-18
DICPCG:  Solving for p, Initial residual = 0.000948145, Final residual = 9.12613e-07, No Iterations 132
time step continuity errors : sum local = 3.3519e-10, global = -4.28905e-20, cumulative = 3.87058e-18
ExecutionTime = 6.16 s  ClockTime = 7 s

Time = 0.063

Courant Number mean: 0.222356 max: 0.970329
smoothSolver:  Solving for Ux, Initial residual = 0.000198988, Final residual = 9.36375e-06, No Iterations 30
smoothSolver:  Solving for Uy, Initial residual = 0.000558451, Final residual = 9.48116e-06, No Iterations 40
DICPCG:  Solving for p, Initial residual = 0.00095847, Final residual = 3.88292e-05, No Iterations 93
time step continuity errors : sum local = 1.42786e-08, global = 1.43901e-19, cumulative = 4.01448e-18
DICPCG:  Solving for p, Initial residual = 0.000918424, Final residual = 9.34827e-07, No Iterations 137
time step continuity errors : sum local = 3.43116e-10, global = -2.43764e-19, cumulative = 3.77071e-18
ExecutionTime = 6.24 s  ClockTime = 7 s

Time = 0.064

Courant Number mean: 0.222525 max: 0.970347
smoothSolver:  Solving for Ux, Initial residual = 0.000188232, Final residual = 9.8285e-06, No Iterations 29
smoothSolver:  Solving for Uy, Initial residual = 0.000531461, Final residual = 9.04441e-06, No Iterations 40
DICPCG:  Solving for p, Initial residual = 0.000857269, Final residual = 3.76072e-05, No Iterations 56
time step continuity errors : sum local = 1.68207e-08, global = 7.66809e-21, cumulative = 3.77838e-18
DICPCG:  Solving for p, Initial residual = 0.000828502, Final residual = 9.02203e-07, No Iterations 133
time step continuity errors : sum local = 3.31592e-10, global = -8.28171e-20, cumulative = 3.69556e-18
ExecutionTime = 6.33 s  ClockTime = 7 s

Time = 0.065

Courant Number mean: 0.222685 max: 0.970364
smoothSolver:  Solving for Ux, Initial residual = 0.000185641, Final residual = 9.61059e-06, No Iterations 29
smoothSolver:  Solving for Uy, Initial residual = 0.000496075, Final residual = 9.27025e-06, No Iterations 39
DICPCG:  Solving for p, Initial residual = 0.00104622, Final residual = 5.1938e-05, No Iterations 96
time step continuity errors : sum local = 1.90624e-08, global = 4.87229e-20, cumulative = 3.74429e-18
DICPCG:  Solving for p, Initial residual = 0.00100843, Final residual = 8.96471e-07, No Iterations 133
time step continuity errors : sum local = 3.2874e-10, global = -2.57344e-20, cumulative = 3.71855e-18
ExecutionTime = 6.41 s  ClockTime = 7 s

Time = 0.066

Courant Number mean: 0.222837 max: 0.970379
smoothSolver:  Solving for Ux, Initial residual = 0.000170987, Final residual = 9.75875e-06, No Iterations 28
smoothSolver:  Solving for Uy, Initial residual = 0.000489609, Final residual = 9.12559e-06, No Iterations 39
DICPCG:  Solving for p, Initial residual = 0.00092584, Final residual = 4.40627e-05, No Iterations 95
time step continuity errors : sum local = 1.62241e-08, global = -1.49413e-19, cumulative = 3.56914e-18
DICPCG:  Solving for p, Initial residual = 0.000879539, Final residual = 9.62758e-07, No Iterations 132
time step continuity errors : sum local = 3.53992e-10, global = -3.6698e-20, cumulative = 3.53244e-18
ExecutionTime = 6.49 s  ClockTime = 7 s

Time = 0.067

Courant Number mean: 0.222981 max: 0.970395
smoothSolver:  Solving for Ux, Initial residual = 0.000163537, Final residual = 9.41448e-06, No Iterations 28
smoothSolver:  Solving for Uy, Initial residual = 0.000456999, Final residual = 9.47986e-06, No Iterations 38
DICPCG:  Solving for p, Initial residual = 0.000933207, Final residual = 4.4045e-05, No Iterations 99
time step continuity errors : sum local = 1.63775e-08, global = -1.57372e-19, cumulative = 3.37507e-18
DICPCG:  Solving for p, Initial residual = 0.00089639, Final residual = 8.70169e-07, No Iterations 137
time step continuity errors : sum local = 3.20051e-10, global = -6.09085e-20, cumulative = 3.31416e-18
ExecutionTime = 6.59 s  ClockTime = 7 s

Time = 0.068

Courant Number mean: 0.223117 max: 0.970406
smoothSolver:  Solving for Ux, Initial residual = 0.000153415, Final residual = 9.80812e-06, No Iterations 27
smoothSolver:  Solving for Uy, Initial residual = 0.000437476, Final residual = 9.10649e-06, No Iterations 38
DICPCG:  Solving for p, Initial residual = 0.000839081, Final residual = 4.02011e-05, No Iterations 54
time step continuity errors : sum local = 1.62368e-08, global = 1.77013e-19, cumulative = 3.49117e-18
DICPCG:  Solving for p, Initial residual = 0.00080272, Final residual = 9.02567e-07, No Iterations 132
time step continuity errors : sum local = 3.31863e-10, global = 1.35421e-19, cumulative = 3.6266e-18
ExecutionTime = 6.66 s  ClockTime = 7 s

Time = 0.069

Courant Number mean: 0.223247 max: 0.970421
smoothSolver:  Solving for Ux, Initial residual = 0.00015006, Final residual = 9.56017e-06, No Iterations 27
smoothSolver:  Solving for Uy, Initial residual = 0.000408376, Final residual = 9.36159e-06, No Iterations 37
DICPCG:  Solving for p, Initial residual = 0.000816289, Final residual = 4.02701e-05, No Iterations 113
time step continuity errors : sum local = 1.48049e-08, global = -3.04947e-20, cumulative = 3.5961e-18
DICPCG:  Solving for p, Initial residual = 0.000789365, Final residual = 8.26167e-07, No Iterations 133
time step continuity errors : sum local = 3.03139e-10, global = -1.80664e-19, cumulative = 3.41544e-18
ExecutionTime = 6.75 s  ClockTime = 7 s

Time = 0.07

Courant Number mean: 0.22337 max: 0.970433
smoothSolver:  Solving for Ux, Initial residual = 0.00013958, Final residual = 9.82005e-06, No Iterations 26
smoothSolver:  Solving for Uy, Initial residual = 0.000397534, Final residual = 9.1362e-06, No Iterations 37
DICPCG:  Solving for p, Initial residual = 0.000843274, Final residual = 4.09998e-05, No Iterations 96
time step continuity errors : sum local = 1.50659e-08, global = -2.76179e-19, cumulative = 3.13926e-18
DICPCG:  Solving for p, Initial residual = 0.0008165, Final residual = 8.03036e-07, No Iterations 138
time step continuity errors : sum local = 2.94944e-10, global = 3.87617e-20, cumulative = 3.17802e-18
ExecutionTime = 6.84 s  ClockTime = 8 s

Time = 0.071

Courant Number mean: 0.223487 max: 0.970444
smoothSolver:  Solving for Ux, Initial residual = 0.000133987, Final residual = 9.46946e-06, No Iterations 26
smoothSolver:  Solving for Uy, Initial residual = 0.000373453, Final residual = 9.50739e-06, No Iterations 36
DICPCG:  Solving for p, Initial residual = 0.000711238, Final residual = 3.36587e-05, No Iterations 56
time step continuity errors : sum local = 1.46753e-08, global = -1.81758e-19, cumulative = 2.99626e-18
DICPCG:  Solving for p, Initial residual = 0.000682597, Final residual = 9.50935e-07, No Iterations 135
time step continuity errors : sum local = 3.48767e-10, global = 1.47868e-19, cumulative = 3.14413e-18
ExecutionTime = 6.92 s  ClockTime = 8 s

Time = 0.072

Courant Number mean: 0.223597 max: 0.970454
smoothSolver:  Solving for Ux, Initial residual = 0.000124521, Final residual = 9.66468e-06, No Iterations 25
smoothSolver:  Solving for Uy, Initial residual = 0.000368696, Final residual = 9.31959e-06, No Iterations 36
DICPCG:  Solving for p, Initial residual = 0.000856029, Final residual = 3.42708e-05, No Iterations 98
time step continuity errors : sum local = 1.25689e-08, global = -2.84201e-21, cumulative = 3.14129e-18
DICPCG:  Solving for p, Initial residual = 0.000820765, Final residual = 9.66219e-07, No Iterations 134
time step continuity errors : sum local = 3.54758e-10, global = 3.6924e-19, cumulative = 3.51053e-18
ExecutionTime = 7 s  ClockTime = 8 s

Time = 0.073

Courant Number mean: 0.223702 max: 0.970465
smoothSolver:  Solving for Ux, Initial residual = 0.000124073, Final residual = 9.60716e-06, No Iterations 25
smoothSolver:  Solving for Uy, Initial residual = 0.000339839, Final residual = 9.45833e-06, No Iterations 35
DICPCG:  Solving for p, Initial residual = 0.000713892, Final residual = 3.19891e-05, No Iterations 109
time step continuity errors : sum local = 1.17516e-08, global = -1.0534e-19, cumulative = 3.40519e-18
DICPCG:  Solving for p, Initial residual = 0.00068935, Final residual = 9.85847e-07, No Iterations 131
time step continuity errors : sum local = 3.61439e-10, global = -7.98891e-20, cumulative = 3.3253e-18
ExecutionTime = 7.09 s  ClockTime = 8 s

Time = 0.074

Courant Number mean: 0.223802 max: 0.970476
smoothSolver:  Solving for Ux, Initial residual = 0.000115093, Final residual = 9.95656e-06, No Iterations 24
smoothSolver:  Solving for Uy, Initial residual = 0.000324061, Final residual = 9.13039e-06, No Iterations 35
DICPCG:  Solving for p, Initial residual = 0.000664591, Final residual = 3.10124e-05, No Iterations 98
time step continuity errors : sum local = 1.146e-08, global = -8.99481e-20, cumulative = 3.23535e-18
DICPCG:  Solving for p, Initial residual = 0.000639728, Final residual = 8.66156e-07, No Iterations 131
time step continuity errors : sum local = 3.17881e-10, global = -7.21909e-20, cumulative = 3.16316e-18
ExecutionTime = 7.17 s  ClockTime = 8 s

Time = 0.075

Courant Number mean: 0.223896 max: 0.970485
smoothSolver:  Solving for Ux, Initial residual = 0.000110049, Final residual = 9.53966e-06, No Iterations 24
smoothSolver:  Solving for Uy, Initial residual = 0.000305894, Final residual = 9.54529e-06, No Iterations 34
DICPCG:  Solving for p, Initial residual = 0.000642319, Final residual = 2.94704e-05, No Iterations 53
time step continuity errors : sum local = 1.13085e-08, global = -2.05424e-19, cumulative = 2.95773e-18
DICPCG:  Solving for p, Initial residual = 0.000621813, Final residual = 9.52733e-07, No Iterations 130
time step continuity errors : sum local = 3.49358e-10, global = 1.63402e-19, cumulative = 3.12114e-18
ExecutionTime = 7.26 s  ClockTime = 8 s

Time = 0.076

Courant Number mean: 0.223986 max: 0.970492
smoothSolver:  Solving for Ux, Initial residual = 0.000103658, Final residual = 9.93651e-06, No Iterations 23
smoothSolver:  Solving for Uy, Initial residual = 0.000295564, Final residual = 9.21244e-06, No Iterations 34
DICPCG:  Solving for p, Initial residual = 0.000671501, Final residual = 3.02899e-05, No Iterations 107
time step continuity errors : sum local = 1.11411e-08, global = 9.68669e-20, cumulative = 3.218e-18
DICPCG:  Solving for p, Initial residual = 0.000649914, Final residual = 8.02697e-07, No Iterations 131
time step continuity errors : sum local = 2.94492e-10, global = -4.86327e-20, cumulative = 3.16937e-18
ExecutionTime = 7.34 s  ClockTime = 8 s

Time = 0.077

Courant Number mean: 0.224071 max: 0.970501
smoothSolver:  Solving for Ux, Initial residual = 0.000100338, Final residual = 9.62182e-06, No Iterations 23
smoothSolver:  Solving for Uy, Initial residual = 0.000277456, Final residual = 9.55913e-06, No Iterations 33
DICPCG:  Solving for p, Initial residual = 0.000588653, Final residual = 2.67435e-05, No Iterations 110
time step continuity errors : sum local = 9.82288e-09, global = 6.05466e-20, cumulative = 3.22992e-18
DICPCG:  Solving for p, Initial residual = 0.000572072, Final residual = 9.5373e-07, No Iterations 131
time step continuity errors : sum local = 3.49778e-10, global = 4.11215e-20, cumulative = 3.27104e-18
ExecutionTime = 7.42 s  ClockTime = 8 s

Time = 0.078

Courant Number mean: 0.224152 max: 0.970509
smoothSolver:  Solving for Ux, Initial residual = 9.49157e-05, Final residual = 9.13085e-06, No Iterations 23
smoothSolver:  Solving for Uy, Initial residual = 0.000264822, Final residual = 9.15887e-06, No Iterations 33
DICPCG:  Solving for p, Initial residual = 0.000540249, Final residual = 2.67469e-05, No Iterations 98
time step continuity errors : sum local = 9.94325e-09, global = 2.1791e-22, cumulative = 3.27126e-18
DICPCG:  Solving for p, Initial residual = 0.000525849, Final residual = 9.28262e-07, No Iterations 130
time step continuity errors : sum local = 3.40572e-10, global = -2.62786e-19, cumulative = 3.00847e-18
ExecutionTime = 7.5 s  ClockTime = 8 s

Time = 0.079

Courant Number mean: 0.224229 max: 0.970516
smoothSolver:  Solving for Ux, Initial residual = 9.07662e-05, Final residual = 9.67626e-06, No Iterations 22
smoothSolver:  Solving for Uy, Initial residual = 0.000251243, Final residual = 9.62898e-06, No Iterations 32
DICPCG:  Solving for p, Initial residual = 0.000507494, Final residual = 1.92996e-05, No Iterations 56
time step continuity errors : sum local = 8.81917e-09, global = 1.01295e-19, cumulative = 3.10977e-18
DICPCG:  Solving for p, Initial residual = 0.000499571, Final residual = 9.55245e-07, No Iterations 130
time step continuity errors : sum local = 3.50395e-10, global = -2.43914e-19, cumulative = 2.86585e-18
ExecutionTime = 7.58 s  ClockTime = 8 s

Time = 0.08

Courant Number mean: 0.224301 max: 0.970524
smoothSolver:  Solving for Ux, Initial residual = 8.99032e-05, Final residual = 9.495e-06, No Iterations 22
smoothSolver:  Solving for Uy, Initial residual = 0.000234823, Final residual = 9.8697e-06, No Iterations 31
DICPCG:  Solving for p, Initial residual = 0.000601868, Final residual = 2.80036e-05, No Iterations 111
time step continuity errors : sum local = 1.02652e-08, global = 6.74476e-20, cumulative = 2.9333e-18
DICPCG:  Solving for p, Initial residual = 0.000585437, Final residual = 8.98818e-07, No Iterations 132
time step continuity errors : sum local = 3.29422e-10, global = 5.59477e-20, cumulative = 2.98925e-18
ExecutionTime = 7.67 s  ClockTime = 8 s

Time = 0.081

Courant Number mean: 0.22437 max: 0.97053
smoothSolver:  Solving for Ux, Initial residual = 8.24913e-05, Final residual = 9.63009e-06, No Iterations 21
smoothSolver:  Solving for Uy, Initial residual = 0.000233251, Final residual = 9.80323e-06, No Iterations 31
DICPCG:  Solving for p, Initial residual = 0.000597993, Final residual = 2.8818e-05, No Iterations 106
time step continuity errors : sum local = 1.06319e-08, global = 2.93948e-19, cumulative = 3.28319e-18
DICPCG:  Solving for p, Initial residual = 0.00057914, Final residual = 8.83352e-07, No Iterations 131
time step continuity errors : sum local = 3.24049e-10, global = -8.13319e-21, cumulative = 3.27506e-18
ExecutionTime = 7.75 s  ClockTime = 9 s

Time = 0.082

Courant Number mean: 0.224436 max: 0.970536
smoothSolver:  Solving for Ux, Initial residual = 7.91939e-05, Final residual = 9.29621e-06, No Iterations 21
smoothSolver:  Solving for Uy, Initial residual = 0.000217623, Final residual = 9.1776e-06, No Iterations 31
DICPCG:  Solving for p, Initial residual = 0.000548689, Final residual = 2.30197e-05, No Iterations 55
time step continuity errors : sum local = 8.94272e-09, global = 8.90032e-20, cumulative = 3.36406e-18
DICPCG:  Solving for p, Initial residual = 0.000531286, Final residual = 8.36735e-07, No Iterations 131
time step continuity errors : sum local = 3.07019e-10, global = 1.80051e-19, cumulative = 3.54412e-18
ExecutionTime = 7.82 s  ClockTime = 9 s

Time = 0.083

Courant Number mean: 0.224498 max: 0.970541
smoothSolver:  Solving for Ux, Initial residual = 7.43904e-05, Final residual = 9.6732e-06, No Iterations 20
smoothSolver:  Solving for Uy, Initial residual = 0.000211381, Final residual = 9.87136e-06, No Iterations 30
DICPCG:  Solving for p, Initial residual = 0.000516082, Final residual = 2.32065e-05, No Iterations 113
time step continuity errors : sum local = 8.51518e-09, global = -9.78301e-20, cumulative = 3.44629e-18
DICPCG:  Solving for p, Initial residual = 0.000503547, Final residual = 8.28216e-07, No Iterations 131
time step continuity errors : sum local = 3.04763e-10, global = 4.04702e-19, cumulative = 3.85099e-18
ExecutionTime = 7.92 s  ClockTime = 9 s

Time = 0.084

Courant Number mean: 0.224557 max: 0.970548
smoothSolver:  Solving for Ux, Initial residual = 7.24389e-05, Final residual = 9.40898e-06, No Iterations 20
smoothSolver:  Solving for Uy, Initial residual = 0.000198104, Final residual = 9.22909e-06, No Iterations 30
DICPCG:  Solving for p, Initial residual = 0.000478369, Final residual = 2.36156e-05, No Iterations 91
time step continuity errors : sum local = 8.67626e-09, global = 7.82409e-21, cumulative = 3.85881e-18
DICPCG:  Solving for p, Initial residual = 0.000468078, Final residual = 9.73184e-07, No Iterations 127
time step continuity errors : sum local = 3.58209e-10, global = -3.19962e-19, cumulative = 3.53885e-18
ExecutionTime = 7.99 s  ClockTime = 9 s

Time = 0.085

Courant Number mean: 0.224613 max: 0.970553
smoothSolver:  Solving for Ux, Initial residual = 6.83701e-05, Final residual = 9.8787e-06, No Iterations 19
smoothSolver:  Solving for Uy, Initial residual = 0.000188883, Final residual = 9.79784e-06, No Iterations 29
DICPCG:  Solving for p, Initial residual = 0.000506919, Final residual = 2.35089e-05, No Iterations 108
time step continuity errors : sum local = 8.64488e-09, global = 1.14263e-19, cumulative = 3.65311e-18
DICPCG:  Solving for p, Initial residual = 0.000494962, Final residual = 9.54048e-07, No Iterations 128
time step continuity errors : sum local = 3.50377e-10, global = 9.43974e-20, cumulative = 3.74751e-18
ExecutionTime = 8.08 s  ClockTime = 9 s

Time = 0.086

Courant Number mean: 0.224666 max: 0.970558
smoothSolver:  Solving for Ux, Initial residual = 6.57121e-05, Final residual = 9.4887e-06, No Iterations 19
smoothSolver:  Solving for Uy, Initial residual = 0.000180011, Final residual = 9.33112e-06, No Iterations 29
DICPCG:  Solving for p, Initial residual = 0.000464818, Final residual = 2.17596e-05, No Iterations 38
time step continuity errors : sum local = 9.09529e-09, global = -1.61339e-19, cumulative = 3.58617e-18
DICPCG:  Solving for p, Initial residual = 0.000457019, Final residual = 8.07353e-07, No Iterations 128
time step continuity errors : sum local = 2.95915e-10, global = -5.44795e-20, cumulative = 3.53169e-18
ExecutionTime = 8.14 s  ClockTime = 9 s

Time = 0.087

Courant Number mean: 0.224717 max: 0.970563
smoothSolver:  Solving for Ux, Initial residual = 6.48234e-05, Final residual = 9.29691e-06, No Iterations 19
smoothSolver:  Solving for Uy, Initial residual = 0.000168933, Final residual = 9.61783e-06, No Iterations 28
DICPCG:  Solving for p, Initial residual = 0.000545451, Final residual = 2.48119e-05, No Iterations 111
time step continuity errors : sum local = 9.09876e-09, global = 2.23883e-19, cumulative = 3.75558e-18
DICPCG:  Solving for p, Initial residual = 0.000532035, Final residual = 9.30334e-07, No Iterations 131
time step continuity errors : sum local = 3.4106e-10, global = 9.31534e-20, cumulative = 3.84873e-18
ExecutionTime = 8.23 s  ClockTime = 9 s

Time = 0.088

Courant Number mean: 0.224765 max: 0.970567
smoothSolver:  Solving for Ux, Initial residual = 5.96686e-05, Final residual = 9.45284e-06, No Iterations 18
smoothSolver:  Solving for Uy, Initial residual = 0.000166778, Final residual = 9.52707e-06, No Iterations 28
DICPCG:  Solving for p, Initial residual = 0.000476955, Final residual = 2.2641e-05, No Iterations 96
time step continuity errors : sum local = 8.33046e-09, global = 1.51892e-19, cumulative = 4.00062e-18
DICPCG:  Solving for p, Initial residual = 0.000465781, Final residual = 8.42523e-07, No Iterations 130
time step continuity errors : sum local = 3.09042e-10, global = -9.53742e-20, cumulative = 3.90525e-18
ExecutionTime = 8.31 s  ClockTime = 9 s

Time = 0.089

Courant Number mean: 0.224811 max: 0.970571
smoothSolver:  Solving for Ux, Initial residual = 5.7721e-05, Final residual = 9.18489e-06, No Iterations 18
smoothSolver:  Solving for Uy, Initial residual = 0.000156415, Final residual = 9.88593e-06, No Iterations 27
DICPCG:  Solving for p, Initial residual = 0.000448097, Final residual = 2.17233e-05, No Iterations 52
time step continuity errors : sum local = 8.13606e-09, global = -3.33513e-20, cumulative = 3.8719e-18
DICPCG:  Solving for p, Initial residual = 0.000438423, Final residual = 8.4381e-07, No Iterations 128
time step continuity errors : sum local = 3.09301e-10, global = 1.72044e-20, cumulative = 3.8891e-18
ExecutionTime = 8.39 s  ClockTime = 9 s

Time = 0.09

Courant Number mean: 0.224854 max: 0.970575
smoothSolver:  Solving for Ux, Initial residual = 5.42029e-05, Final residual = 9.57424e-06, No Iterations 17
smoothSolver:  Solving for Uy, Initial residual = 0.000151362, Final residual = 9.59432e-06, No Iterations 27
DICPCG:  Solving for p, Initial residual = 0.00047834, Final residual = 2.38867e-05, No Iterations 109
time step continuity errors : sum local = 8.77745e-09, global = -1.79589e-22, cumulative = 3.88892e-18
DICPCG:  Solving for p, Initial residual = 0.0004672, Final residual = 9.74801e-07, No Iterations 128
time step continuity errors : sum local = 3.57878e-10, global = 3.05242e-19, cumulative = 4.19416e-18
ExecutionTime = 8.47 s  ClockTime = 9 s

Time = 0.091

Courant Number mean: 0.224895 max: 0.970579
smoothSolver:  Solving for Ux, Initial residual = 5.2847e-05, Final residual = 9.30948e-06, No Iterations 17
smoothSolver:  Solving for Uy, Initial residual = 0.000142165, Final residual = 9.9456e-06, No Iterations 26
DICPCG:  Solving for p, Initial residual = 0.000432012, Final residual = 2.12579e-05, No Iterations 37
time step continuity errors : sum local = 7.93157e-09, global = -7.4674e-20, cumulative = 4.11949e-18
DICPCG:  Solving for p, Initial residual = 0.000422839, Final residual = 9.58777e-07, No Iterations 74
time step continuity errors : sum local = 3.92217e-10, global = -1.86518e-19, cumulative = 3.93297e-18
ExecutionTime = 8.53 s  ClockTime = 9 s

Time = 0.092

Courant Number mean: 0.224934 max: 0.970583
smoothSolver:  Solving for Ux, Initial residual = 5.00167e-05, Final residual = 9.80201e-06, No Iterations 16
smoothSolver:  Solving for Uy, Initial residual = 0.000136489, Final residual = 9.58451e-06, No Iterations 26
DICPCG:  Solving for p, Initial residual = 0.000471808, Final residual = 1.84779e-05, No Iterations 53
time step continuity errors : sum local = 6.78652e-09, global = -6.71121e-21, cumulative = 3.92626e-18
DICPCG:  Solving for p, Initial residual = 0.000464593, Final residual = 9.92352e-07, No Iterations 91
time step continuity errors : sum local = 4.55891e-10, global = 6.01796e-20, cumulative = 3.98644e-18
ExecutionTime = 8.6 s  ClockTime = 10 s

Time = 0.093

Courant Number mean: 0.224971 max: 0.970586
smoothSolver:  Solving for Ux, Initial residual = 4.82033e-05, Final residual = 9.42791e-06, No Iterations 16
smoothSolver:  Solving for Uy, Initial residual = 0.000130162, Final residual = 9.11784e-06, No Iterations 26
DICPCG:  Solving for p, Initial residual = 0.000449919, Final residual = 1.9322e-05, No Iterations 52
time step continuity errors : sum local = 7.55536e-09, global = -9.68713e-21, cumulative = 3.97675e-18
DICPCG:  Solving for p, Initial residual = 0.000443273, Final residual = 7.95331e-07, No Iterations 128
time step continuity errors : sum local = 2.91474e-10, global = -8.13601e-20, cumulative = 3.89539e-18
ExecutionTime = 8.67 s  ClockTime = 10 s

Time = 0.094

Courant Number mean: 0.225006 max: 0.97059
smoothSolver:  Solving for Ux, Initial residual = 4.67891e-05, Final residual = 9.12773e-06, No Iterations 16
smoothSolver:  Solving for Uy, Initial residual = 0.000123109, Final residual = 9.52144e-06, No Iterations 25
DICPCG:  Solving for p, Initial residual = 0.000413828, Final residual = 1.97793e-05, No Iterations 110
time step continuity errors : sum local = 7.24812e-09, global = -1.65635e-19, cumulative = 3.72976e-18
DICPCG:  Solving for p, Initial residual = 0.000405568, Final residual = 7.93346e-07, No Iterations 130
time step continuity errors : sum local = 2.9084e-10, global = -4.95215e-20, cumulative = 3.68024e-18
ExecutionTime = 8.75 s  ClockTime = 10 s

Time = 0.095

Courant Number mean: 0.22504 max: 0.970592
smoothSolver:  Solving for Ux, Initial residual = 4.38261e-05, Final residual = 9.48761e-06, No Iterations 15
smoothSolver:  Solving for Uy, Initial residual = 0.000119718, Final residual = 9.29247e-06, No Iterations 25
DICPCG:  Solving for p, Initial residual = 0.000421418, Final residual = 1.8714e-05, No Iterations 91
time step continuity errors : sum local = 6.86141e-09, global = 8.21282e-20, cumulative = 3.76236e-18
DICPCG:  Solving for p, Initial residual = 0.000413567, Final residual = 8.62338e-07, No Iterations 128
time step continuity errors : sum local = 3.16094e-10, global = 5.82313e-20, cumulative = 3.82059e-18
ExecutionTime = 8.83 s  ClockTime = 10 s

Time = 0.096

Courant Number mean: 0.225072 max: 0.970595
smoothSolver:  Solving for Ux, Initial residual = 4.24694e-05, Final residual = 9.16856e-06, No Iterations 15
smoothSolver:  Solving for Uy, Initial residual = 0.00011343, Final residual = 9.71862e-06, No Iterations 24
DICPCG:  Solving for p, Initial residual = 0.000411575, Final residual = 1.92877e-05, No Iterations 49
time step continuity errors : sum local = 7.8608e-09, global = -3.23076e-20, cumulative = 3.78829e-18
DICPCG:  Solving for p, Initial residual = 0.00040559, Final residual = 9.88467e-07, No Iterations 120
time step continuity errors : sum local = 3.63111e-10, global = 1.54546e-19, cumulative = 3.94283e-18
ExecutionTime = 8.9 s  ClockTime = 10 s

Time = 0.097

Courant Number mean: 0.225102 max: 0.970598
smoothSolver:  Solving for Ux, Initial residual = 4.18163e-05, Final residual = 9.97246e-06, No Iterations 14
smoothSolver:  Solving for Uy, Initial residual = 0.000106887, Final residual = 9.11155e-06, No Iterations 24
DICPCG:  Solving for p, Initial residual = 0.000455044, Final residual = 2.10029e-05, No Iterations 92
time step continuity errors : sum local = 7.70376e-09, global = 8.08353e-20, cumulative = 4.02367e-18
DICPCG:  Solving for p, Initial residual = 0.00044742, Final residual = 8.70011e-07, No Iterations 130
time step continuity errors : sum local = 3.18839e-10, global = 5.56314e-20, cumulative = 4.0793e-18
ExecutionTime = 8.98 s  ClockTime = 10 s

Time = 0.098

Courant Number mean: 0.22513 max: 0.970601
smoothSolver:  Solving for Ux, Initial residual = 3.89454e-05, Final residual = 9.25883e-06, No Iterations 14
smoothSolver:  Solving for Uy, Initial residual = 0.000105213, Final residual = 9.93062e-06, No Iterations 23
DICPCG:  Solving for p, Initial residual = 0.000435587, Final residual = 2.06289e-05, No Iterations 96
time step continuity errors : sum local = 7.64504e-09, global = 1.40035e-19, cumulative = 4.21933e-18
DICPCG:  Solving for p, Initial residual = 0.000425813, Final residual = 9.00649e-07, No Iterations 121
time step continuity errors : sum local = 3.30528e-10, global = -3.31438e-20, cumulative = 4.18619e-18
ExecutionTime = 9.06 s  ClockTime = 10 s

Time = 0.099

Courant Number mean: 0.225158 max: 0.970603
smoothSolver:  Solving for Ux, Initial residual = 3.76888e-05, Final residual = 9.95337e-06, No Iterations 13
smoothSolver:  Solving for Uy, Initial residual = 9.92297e-05, Final residual = 9.37683e-06, No Iterations 23
DICPCG:  Solving for p, Initial residual = 0.000408532, Final residual = 1.87015e-05, No Iterations 103
time step continuity errors : sum local = 6.85685e-09, global = -6.54733e-21, cumulative = 4.17964e-18
DICPCG:  Solving for p, Initial residual = 0.000402421, Final residual = 9.86558e-07, No Iterations 120
time step continuity errors : sum local = 3.6222e-10, global = 1.15668e-19, cumulative = 4.29531e-18
ExecutionTime = 9.13 s  ClockTime = 10 s

Time = 0.1

Courant Number mean: 0.225183 max: 0.970605
smoothSolver:  Solving for Ux, Initial residual = 3.60452e-05, Final residual = 9.52269e-06, No Iterations 13
smoothSolver:  Solving for Uy, Initial residual = 9.57102e-05, Final residual = 9.05922e-06, No Iterations 23
DICPCG:  Solving for p, Initial residual = 0.0003936, Final residual = 1.75166e-05, No Iterations 103
time step continuity errors : sum local = 6.42859e-09, global = 6.02162e-20, cumulative = 4.35553e-18
DICPCG:  Solving for p, Initial residual = 0.00038881, Final residual = 9.52786e-07, No Iterations 124
time step continuity errors : sum local = 3.49157e-10, global = 2.24955e-19, cumulative = 4.58048e-18
ExecutionTime = 9.21 s  ClockTime = 10 s

Time = 0.101

Courant Number mean: 0.225208 max: 0.970608
smoothSolver:  Solving for Ux, Initial residual = 3.4737e-05, Final residual = 9.17612e-06, No Iterations 13
smoothSolver:  Solving for Uy, Initial residual = 9.1332e-05, Final residual = 9.56989e-06, No Iterations 22
DICPCG:  Solving for p, Initial residual = 0.000354029, Final residual = 1.69178e-05, No Iterations 37
time step continuity errors : sum local = 7.21025e-09, global = -4.93811e-20, cumulative = 4.5311e-18
DICPCG:  Solving for p, Initial residual = 0.000352683, Final residual = 7.92438e-07, No Iterations 128
time step continuity errors : sum local = 2.90391e-10, global = -1.63743e-20, cumulative = 4.51473e-18
ExecutionTime = 9.28 s  ClockTime = 10 s

Time = 0.102

Courant Number mean: 0.225231 max: 0.97061
smoothSolver:  Solving for Ux, Initial residual = 3.48132e-05, Final residual = 9.13503e-06, No Iterations 13
smoothSolver:  Solving for Uy, Initial residual = 8.57822e-05, Final residual = 9.79467e-06, No Iterations 21
DICPCG:  Solving for p, Initial residual = 0.000398389, Final residual = 1.83087e-05, No Iterations 112
time step continuity errors : sum local = 6.71905e-09, global = -2.39849e-19, cumulative = 4.27488e-18
DICPCG:  Solving for p, Initial residual = 0.000391757, Final residual = 6.78825e-07, No Iterations 131
time step continuity errors : sum local = 2.48903e-10, global = 1.781e-19, cumulative = 4.45298e-18
ExecutionTime = 9.36 s  ClockTime = 10 s

Time = 0.103

Courant Number mean: 0.225254 max: 0.970611
smoothSolver:  Solving for Ux, Initial residual = 3.15463e-05, Final residual = 9.17705e-06, No Iterations 12
smoothSolver:  Solving for Uy, Initial residual = 8.65436e-05, Final residual = 9.93625e-06, No Iterations 21
DICPCG:  Solving for p, Initial residual = 0.000394689, Final residual = 1.77937e-05, No Iterations 94
time step continuity errors : sum local = 6.54074e-09, global = -1.79306e-20, cumulative = 4.43505e-18
DICPCG:  Solving for p, Initial residual = 0.000387119, Final residual = 7.70397e-07, No Iterations 129
time step continuity errors : sum local = 2.82565e-10, global = 1.9551e-19, cumulative = 4.63056e-18
ExecutionTime = 9.44 s  ClockTime = 10 s

Time = 0.104

Courant Number mean: 0.225275 max: 0.970614
smoothSolver:  Solving for Ux, Initial residual = 3.10852e-05, Final residual = 9.99376e-06, No Iterations 11
smoothSolver:  Solving for Uy, Initial residual = 8.03732e-05, Final residual = 9.24106e-06, No Iterations 21
DICPCG:  Solving for p, Initial residual = 0.000437228, Final residual = 2.16907e-05, No Iterations 50
time step continuity errors : sum local = 8.91123e-09, global = -2.19219e-19, cumulative = 4.41134e-18
DICPCG:  Solving for p, Initial residual = 0.000435923, Final residual = 8.71629e-07, No Iterations 128
time step continuity errors : sum local = 3.19492e-10, global = 1.80481e-19, cumulative = 4.59182e-18
ExecutionTime = 9.51 s  ClockTime = 11 s

Time = 0.105

Courant Number mean: 0.225294 max: 0.970616
smoothSolver:  Solving for Ux, Initial residual = 3.13917e-05, Final residual = 9.07103e-06, No Iterations 12
smoothSolver:  Solving for Uy, Initial residual = 7.54848e-05, Final residual = 9.49952e-06, No Iterations 20
DICPCG:  Solving for p, Initial residual = 0.00042732, Final residual = 2.04733e-05, No Iterations 110
time step continuity errors : sum local = 7.51121e-09, global = -1.62408e-19, cumulative = 4.42941e-18
DICPCG:  Solving for p, Initial residual = 0.00041774, Final residual = 8.52765e-07, No Iterations 131
[...]
DICPCG:  Solving for p, Initial residual = 5.25327e-07, Final residual = 5.25327e-07, No Iterations 0
time step continuity errors : sum local = 2.17924e-10, global = 9.44008e-20, cumulative = 1.43271e-17
ExecutionTime = 179.61 s  ClockTime = 220 s

Time = 4.974

Courant Number mean: 0.225773 max: 0.970655
smoothSolver:  Solving for Ux, Initial residual = 5.82285e-09, Final residual = 5.82285e-09, No Iterations 0
smoothSolver:  Solving for Uy, Initial residual = 1.6381e-08, Final residual = 1.6381e-08, No Iterations 0
DICPCG:  Solving for p, Initial residual = 8.92848e-07, Final residual = 8.92848e-07, No Iterations 0
time step continuity errors : sum local = 3.5265e-10, global = -1.29778e-19, cumulative = 1.41974e-17
DICPCG:  Solving for p, Initial residual = 1.13466e-06, Final residual = 7.26533e-08, No Iterations 1
time step continuity errors : sum local = 5.19814e-11, global = 2.02633e-20, cumulative = 1.42176e-17
ExecutionTime = 179.63 s  ClockTime = 220 s

Time = 4.975

Courant Number mean: 0.225773 max: 0.970655
smoothSolver:  Solving for Ux, Initial residual = 7.53372e-09, Final residual = 7.53372e-09, No Iterations 0
smoothSolver:  Solving for Uy, Initial residual = 2.11945e-08, Final residual = 2.11945e-08, No Iterations 0
DICPCG:  Solving for p, Initial residual = 4.99239e-07, Final residual = 4.99239e-07, No Iterations 0
time step continuity errors : sum local = 2.08358e-10, global = -1.91882e-19, cumulative = 1.40257e-17
DICPCG:  Solving for p, Initial residual = 8.10711e-07, Final residual = 8.10711e-07, No Iterations 0
time step continuity errors : sum local = 3.22537e-10, global = 4.1161e-20, cumulative = 1.40669e-17
ExecutionTime = 179.67 s  ClockTime = 220 s

Time = 4.976

Courant Number mean: 0.225773 max: 0.970655
smoothSolver:  Solving for Ux, Initial residual = 3.63449e-09, Final residual = 3.63449e-09, No Iterations 0
smoothSolver:  Solving for Uy, Initial residual = 1.02249e-08, Final residual = 1.02249e-08, No Iterations 0
DICPCG:  Solving for p, Initial residual = 1.03746e-06, Final residual = 7.20518e-08, No Iterations 1
time step continuity errors : sum local = 5.17579e-11, global = -8.35293e-20, cumulative = 1.39834e-17
DICPCG:  Solving for p, Initial residual = 4.42935e-07, Final residual = 4.42935e-07, No Iterations 0
time step continuity errors : sum local = 1.87715e-10, global = 7.6273e-20, cumulative = 1.40596e-17
ExecutionTime = 179.7 s  ClockTime = 220 s

Time = 4.977

Courant Number mean: 0.225773 max: 0.970655
smoothSolver:  Solving for Ux, Initial residual = 4.85304e-09, Final residual = 4.85304e-09, No Iterations 0
smoothSolver:  Solving for Uy, Initial residual = 1.36554e-08, Final residual = 1.36554e-08, No Iterations 0
DICPCG:  Solving for p, Initial residual = 7.49337e-07, Final residual = 7.49337e-07, No Iterations 0
time step continuity errors : sum local = 3.00035e-10, global = 7.27854e-20, cumulative = 1.41324e-17
DICPCG:  Solving for p, Initial residual = 9.50608e-07, Final residual = 9.50608e-07, No Iterations 0
time step continuity errors : sum local = 3.73816e-10, global = -1.23274e-19, cumulative = 1.40092e-17
ExecutionTime = 179.73 s  ClockTime = 220 s

Time = 4.978

Courant Number mean: 0.225773 max: 0.970655
smoothSolver:  Solving for Ux, Initial residual = 2.35032e-09, Final residual = 2.35032e-09, No Iterations 0
smoothSolver:  Solving for Uy, Initial residual = 6.61598e-09, Final residual = 6.61598e-09, No Iterations 0
DICPCG:  Solving for p, Initial residual = 1.09684e-06, Final residual = 7.24046e-08, No Iterations 1
time step continuity errors : sum local = 5.18837e-11, global = -6.28693e-20, cumulative = 1.39463e-17
DICPCG:  Solving for p, Initial residual = 5.28599e-07, Final residual = 5.28599e-07, No Iterations 0
time step continuity errors : sum local = 2.19115e-10, global = 4.40752e-21, cumulative = 1.39507e-17
ExecutionTime = 179.77 s  ClockTime = 220 s

Time = 4.979

Courant Number mean: 0.225773 max: 0.970655
smoothSolver:  Solving for Ux, Initial residual = 5.86027e-09, Final residual = 5.86027e-09, No Iterations 0
smoothSolver:  Solving for Uy, Initial residual = 1.64871e-08, Final residual = 1.64871e-08, No Iterations 0
DICPCG:  Solving for p, Initial residual = 8.98448e-07, Final residual = 8.98448e-07, No Iterations 0
time step continuity errors : sum local = 3.54693e-10, global = 1.65861e-19, cumulative = 1.41166e-17
DICPCG:  Solving for p, Initial residual = 1.14189e-06, Final residual = 7.26823e-08, No Iterations 1
time step continuity errors : sum local = 5.19826e-11, global = -7.48509e-20, cumulative = 1.40417e-17
ExecutionTime = 179.8 s  ClockTime = 220 s

Time = 4.98

Courant Number mean: 0.225773 max: 0.970655
smoothSolver:  Solving for Ux, Initial residual = 7.58147e-09, Final residual = 7.58147e-09, No Iterations 0
smoothSolver:  Solving for Uy, Initial residual = 2.133e-08, Final residual = 2.133e-08, No Iterations 0
DICPCG:  Solving for p, Initial residual = 5.02067e-07, Final residual = 5.02067e-07, No Iterations 0
time step continuity errors : sum local = 2.09385e-10, global = -7.5029e-20, cumulative = 1.39667e-17
DICPCG:  Solving for p, Initial residual = 8.15673e-07, Final residual = 8.15673e-07, No Iterations 0
time step continuity errors : sum local = 3.24346e-10, global = 1.29856e-20, cumulative = 1.39797e-17
ExecutionTime = 179.84 s  ClockTime = 220 s

Time = 4.981

Courant Number mean: 0.225773 max: 0.970655
smoothSolver:  Solving for Ux, Initial residual = 3.65755e-09, Final residual = 3.65755e-09, No Iterations 0
smoothSolver:  Solving for Uy, Initial residual = 1.02915e-08, Final residual = 1.02915e-08, No Iterations 0
DICPCG:  Solving for p, Initial residual = 1.04383e-06, Final residual = 7.20832e-08, No Iterations 1
time step continuity errors : sum local = 5.17596e-11, global = 1.11631e-19, cumulative = 1.40913e-17
DICPCG:  Solving for p, Initial residual = 4.45672e-07, Final residual = 4.45672e-07, No Iterations 0
time step continuity errors : sum local = 1.88709e-10, global = -1.19894e-19, cumulative = 1.39714e-17
ExecutionTime = 179.87 s  ClockTime = 220 s

Time = 4.982

Courant Number mean: 0.225773 max: 0.970655
smoothSolver:  Solving for Ux, Initial residual = 4.88322e-09, Final residual = 4.88322e-09, No Iterations 0
smoothSolver:  Solving for Uy, Initial residual = 1.37409e-08, Final residual = 1.37409e-08, No Iterations 0
DICPCG:  Solving for p, Initial residual = 7.53896e-07, Final residual = 7.53896e-07, No Iterations 0
time step continuity errors : sum local = 3.01697e-10, global = 1.91983e-19, cumulative = 1.41634e-17
DICPCG:  Solving for p, Initial residual = 9.56388e-07, Final residual = 9.56388e-07, No Iterations 0
time step continuity errors : sum local = 3.75926e-10, global = 2.33394e-19, cumulative = 1.43968e-17
ExecutionTime = 179.9 s  ClockTime = 220 s

Time = 4.983

Courant Number mean: 0.225773 max: 0.970655
smoothSolver:  Solving for Ux, Initial residual = 2.36515e-09, Final residual = 2.36515e-09, No Iterations 0
smoothSolver:  Solving for Uy, Initial residual = 6.65789e-09, Final residual = 6.65789e-09, No Iterations 0
DICPCG:  Solving for p, Initial residual = 1.10357e-06, Final residual = 7.24251e-08, No Iterations 1
time step continuity errors : sum local = 5.18817e-11, global = 1.52629e-19, cumulative = 1.45494e-17
DICPCG:  Solving for p, Initial residual = 5.31475e-07, Final residual = 5.31475e-07, No Iterations 0
time step continuity errors : sum local = 2.20159e-10, global = -7.39388e-20, cumulative = 1.44755e-17
ExecutionTime = 179.94 s  ClockTime = 220 s

Time = 4.984

Courant Number mean: 0.225773 max: 0.970655
smoothSolver:  Solving for Ux, Initial residual = 5.896e-09, Final residual = 5.896e-09, No Iterations 0
smoothSolver:  Solving for Uy, Initial residual = 1.65908e-08, Final residual = 1.65908e-08, No Iterations 0
DICPCG:  Solving for p, Initial residual = 9.03681e-07, Final residual = 9.03681e-07, No Iterations 0
time step continuity errors : sum local = 3.56601e-10, global = -1.23733e-20, cumulative = 1.44631e-17
DICPCG:  Solving for p, Initial residual = 1.14861e-06, Final residual = 7.27159e-08, No Iterations 1
time step continuity errors : sum local = 5.19851e-11, global = -4.3386e-20, cumulative = 1.44197e-17
ExecutionTime = 179.97 s  ClockTime = 220 s

Time = 4.985

Courant Number mean: 0.225773 max: 0.970655
smoothSolver:  Solving for Ux, Initial residual = 7.62665e-09, Final residual = 7.62665e-09, No Iterations 0
smoothSolver:  Solving for Uy, Initial residual = 2.14585e-08, Final residual = 2.14585e-08, No Iterations 0
DICPCG:  Solving for p, Initial residual = 5.05114e-07, Final residual = 5.05114e-07, No Iterations 0
time step continuity errors : sum local = 2.10493e-10, global = 3.58956e-20, cumulative = 1.44556e-17
DICPCG:  Solving for p, Initial residual = 8.20505e-07, Final residual = 8.20505e-07, No Iterations 0
time step continuity errors : sum local = 3.26108e-10, global = 5.72985e-21, cumulative = 1.44613e-17
ExecutionTime = 180.01 s  ClockTime = 221 s

Time = 4.986

Courant Number mean: 0.225773 max: 0.970655
smoothSolver:  Solving for Ux, Initial residual = 3.67991e-09, Final residual = 3.67991e-09, No Iterations 0
smoothSolver:  Solving for Uy, Initial residual = 1.03549e-08, Final residual = 1.03549e-08, No Iterations 0
DICPCG:  Solving for p, Initial residual = 1.04997e-06, Final residual = 7.2098e-08, No Iterations 1
time step continuity errors : sum local = 5.17555e-11, global = 9.97777e-20, cumulative = 1.45611e-17
DICPCG:  Solving for p, Initial residual = 4.47862e-07, Final residual = 4.47862e-07, No Iterations 0
time step continuity errors : sum local = 1.89502e-10, global = -5.92988e-20, cumulative = 1.45018e-17
ExecutionTime = 180.04 s  ClockTime = 221 s

Time = 4.987

Courant Number mean: 0.225773 max: 0.970655
smoothSolver:  Solving for Ux, Initial residual = 4.9115e-09, Final residual = 4.9115e-09, No Iterations 0
smoothSolver:  Solving for Uy, Initial residual = 1.38246e-08, Final residual = 1.38246e-08, No Iterations 0
DICPCG:  Solving for p, Initial residual = 7.58005e-07, Final residual = 7.58005e-07, No Iterations 0
time step continuity errors : sum local = 3.03193e-10, global = -1.69502e-19, cumulative = 1.43323e-17
DICPCG:  Solving for p, Initial residual = 9.61754e-07, Final residual = 9.61754e-07, No Iterations 0
time step continuity errors : sum local = 3.77883e-10, global = 8.4779e-20, cumulative = 1.44171e-17
ExecutionTime = 180.07 s  ClockTime = 221 s

Time = 4.988

Courant Number mean: 0.225773 max: 0.970655
smoothSolver:  Solving for Ux, Initial residual = 2.37874e-09, Final residual = 2.37874e-09, No Iterations 0
smoothSolver:  Solving for Uy, Initial residual = 6.69841e-09, Final residual = 6.69841e-09, No Iterations 0
DICPCG:  Solving for p, Initial residual = 1.10986e-06, Final residual = 7.24526e-08, No Iterations 1
time step continuity errors : sum local = 5.1882e-11, global = 4.3458e-20, cumulative = 1.44605e-17
DICPCG:  Solving for p, Initial residual = 5.34581e-07, Final residual = 5.34581e-07, No Iterations 0
time step continuity errors : sum local = 2.21288e-10, global = -3.89285e-20, cumulative = 1.44216e-17
ExecutionTime = 180.11 s  ClockTime = 221 s

Time = 4.989

Courant Number mean: 0.225773 max: 0.970655
smoothSolver:  Solving for Ux, Initial residual = 5.93036e-09, Final residual = 5.93036e-09, No Iterations 0
smoothSolver:  Solving for Uy, Initial residual = 1.66885e-08, Final residual = 1.66885e-08, No Iterations 0
DICPCG:  Solving for p, Initial residual = 9.08748e-07, Final residual = 9.08748e-07, No Iterations 0
time step continuity errors : sum local = 3.58449e-10, global = -2.73965e-20, cumulative = 1.43942e-17
DICPCG:  Solving for p, Initial residual = 1.15505e-06, Final residual = 7.27426e-08, No Iterations 1
time step continuity errors : sum local = 5.19854e-11, global = 1.75438e-19, cumulative = 1.45697e-17
ExecutionTime = 180.14 s  ClockTime = 221 s

Time = 4.99

Courant Number mean: 0.225773 max: 0.970655
smoothSolver:  Solving for Ux, Initial residual = 7.6689e-09, Final residual = 7.6689e-09, No Iterations 0
smoothSolver:  Solving for Uy, Initial residual = 2.15832e-08, Final residual = 2.15832e-08, No Iterations 0
DICPCG:  Solving for p, Initial residual = 5.0753e-07, Final residual = 5.0753e-07, No Iterations 0
time step continuity errors : sum local = 2.11368e-10, global = -7.8941e-20, cumulative = 1.44907e-17
DICPCG:  Solving for p, Initial residual = 8.24865e-07, Final residual = 8.24865e-07, No Iterations 0
time step continuity errors : sum local = 3.27696e-10, global = -1.06022e-19, cumulative = 1.43847e-17
ExecutionTime = 180.17 s  ClockTime = 221 s

Time = 4.991

Courant Number mean: 0.225773 max: 0.970655
smoothSolver:  Solving for Ux, Initial residual = 3.70039e-09, Final residual = 3.70039e-09, No Iterations 0
smoothSolver:  Solving for Uy, Initial residual = 1.04152e-08, Final residual = 1.04152e-08, No Iterations 0
DICPCG:  Solving for p, Initial residual = 1.05577e-06, Final residual = 7.21135e-08, No Iterations 1
time step continuity errors : sum local = 5.17514e-11, global = 1.87769e-19, cumulative = 1.45725e-17
DICPCG:  Solving for p, Initial residual = 4.50394e-07, Final residual = 4.50394e-07, No Iterations 0
time step continuity errors : sum local = 1.90421e-10, global = 3.34408e-20, cumulative = 1.46059e-17
ExecutionTime = 180.21 s  ClockTime = 221 s

Time = 4.992

Courant Number mean: 0.225773 max: 0.970655
smoothSolver:  Solving for Ux, Initial residual = 4.93865e-09, Final residual = 4.93865e-09, No Iterations 0
smoothSolver:  Solving for Uy, Initial residual = 1.39022e-08, Final residual = 1.39022e-08, No Iterations 0
DICPCG:  Solving for p, Initial residual = 7.62175e-07, Final residual = 7.62175e-07, No Iterations 0
time step continuity errors : sum local = 3.04713e-10, global = 5.64249e-20, cumulative = 1.46623e-17
DICPCG:  Solving for p, Initial residual = 9.66987e-07, Final residual = 9.66987e-07, No Iterations 0
time step continuity errors : sum local = 3.79792e-10, global = 8.91255e-20, cumulative = 1.47515e-17
ExecutionTime = 180.24 s  ClockTime = 221 s

Time = 4.993

Courant Number mean: 0.225773 max: 0.970655
smoothSolver:  Solving for Ux, Initial residual = 2.39188e-09, Final residual = 2.39188e-09, No Iterations 0
smoothSolver:  Solving for Uy, Initial residual = 6.73693e-09, Final residual = 6.73693e-09, No Iterations 0
DICPCG:  Solving for p, Initial residual = 1.11584e-06, Final residual = 7.24761e-08, No Iterations 1
time step continuity errors : sum local = 5.18811e-11, global = 6.42121e-20, cumulative = 1.48157e-17
DICPCG:  Solving for p, Initial residual = 5.37092e-07, Final residual = 5.37092e-07, No Iterations 0
time step continuity errors : sum local = 2.22199e-10, global = -1.04134e-19, cumulative = 1.47115e-17
ExecutionTime = 180.28 s  ClockTime = 221 s

Time = 4.994

Courant Number mean: 0.225773 max: 0.970655
smoothSolver:  Solving for Ux, Initial residual = 5.96206e-09, Final residual = 5.96206e-09, No Iterations 0
smoothSolver:  Solving for Uy, Initial residual = 1.67813e-08, Final residual = 1.67813e-08, No Iterations 0
DICPCG:  Solving for p, Initial residual = 9.13544e-07, Final residual = 9.13544e-07, No Iterations 0
time step continuity errors : sum local = 3.60197e-10, global = 1.84861e-20, cumulative = 1.473e-17
DICPCG:  Solving for p, Initial residual = 1.16131e-06, Final residual = 7.27658e-08, No Iterations 1
time step continuity errors : sum local = 5.19841e-11, global = 1.54828e-19, cumulative = 1.48848e-17
ExecutionTime = 180.32 s  ClockTime = 221 s

Time = 4.995

Courant Number mean: 0.225773 max: 0.970655
smoothSolver:  Solving for Ux, Initial residual = 7.70983e-09, Final residual = 7.70983e-09, No Iterations 0
smoothSolver:  Solving for Uy, Initial residual = 2.17008e-08, Final residual = 2.17008e-08, No Iterations 0
DICPCG:  Solving for p, Initial residual = 5.10269e-07, Final residual = 5.10269e-07, No Iterations 0
time step continuity errors : sum local = 2.12363e-10, global = -5.55522e-20, cumulative = 1.48293e-17
DICPCG:  Solving for p, Initial residual = 8.29257e-07, Final residual = 8.29257e-07, No Iterations 0
time step continuity errors : sum local = 3.29297e-10, global = -3.80889e-20, cumulative = 1.47912e-17
ExecutionTime = 180.34 s  ClockTime = 221 s

Time = 4.996

Courant Number mean: 0.225773 max: 0.970655
smoothSolver:  Solving for Ux, Initial residual = 3.72014e-09, Final residual = 3.72014e-09, No Iterations 0
smoothSolver:  Solving for Uy, Initial residual = 1.04725e-08, Final residual = 1.04725e-08, No Iterations 0
DICPCG:  Solving for p, Initial residual = 1.06129e-06, Final residual = 7.21409e-08, No Iterations 1
time step continuity errors : sum local = 5.1752e-11, global = 2.69812e-19, cumulative = 1.5061e-17
DICPCG:  Solving for p, Initial residual = 4.52375e-07, Final residual = 4.52375e-07, No Iterations 0
time step continuity errors : sum local = 1.91137e-10, global = 8.37526e-21, cumulative = 1.50694e-17
ExecutionTime = 180.38 s  ClockTime = 221 s

Time = 4.997

Courant Number mean: 0.225773 max: 0.970655
smoothSolver:  Solving for Ux, Initial residual = 4.96392e-09, Final residual = 4.96392e-09, No Iterations 0
smoothSolver:  Solving for Uy, Initial residual = 1.39755e-08, Final residual = 1.39755e-08, No Iterations 0
DICPCG:  Solving for p, Initial residual = 7.65895e-07, Final residual = 7.65895e-07, No Iterations 0
time step continuity errors : sum local = 3.06066e-10, global = -2.09086e-19, cumulative = 1.48603e-17
DICPCG:  Solving for p, Initial residual = 9.71866e-07, Final residual = 9.71866e-07, No Iterations 0
time step continuity errors : sum local = 3.8157e-10, global = 2.1203e-19, cumulative = 1.50723e-17
ExecutionTime = 180.42 s  ClockTime = 221 s

Time = 4.998

Courant Number mean: 0.225773 max: 0.970655
smoothSolver:  Solving for Ux, Initial residual = 2.40431e-09, Final residual = 2.40431e-09, No Iterations 0
smoothSolver:  Solving for Uy, Initial residual = 6.77283e-09, Final residual = 6.77283e-09, No Iterations 0
DICPCG:  Solving for p, Initial residual = 1.12159e-06, Final residual = 7.24887e-08, No Iterations 1
time step continuity errors : sum local = 5.1876e-11, global = 7.77906e-20, cumulative = 1.51501e-17
DICPCG:  Solving for p, Initial residual = 5.39809e-07, Final residual = 5.39809e-07, No Iterations 0
time step continuity errors : sum local = 2.23185e-10, global = -2.29465e-20, cumulative = 1.51272e-17
ExecutionTime = 180.45 s  ClockTime = 221 s

Time = 4.999

Courant Number mean: 0.225773 max: 0.970655
smoothSolver:  Solving for Ux, Initial residual = 5.99207e-09, Final residual = 5.99207e-09, No Iterations 0
smoothSolver:  Solving for Uy, Initial residual = 1.68685e-08, Final residual = 1.68685e-08, No Iterations 0
DICPCG:  Solving for p, Initial residual = 9.18126e-07, Final residual = 9.18126e-07, No Iterations 0
time step continuity errors : sum local = 3.61868e-10, global = -4.09485e-20, cumulative = 1.50862e-17
DICPCG:  Solving for p, Initial residual = 1.167e-06, Final residual = 7.27979e-08, No Iterations 1
time step continuity errors : sum local = 5.19864e-11, global = -8.71119e-20, cumulative = 1.49991e-17
ExecutionTime = 180.48 s  ClockTime = 221 s

Time = 5

Courant Number mean: 0.225773 max: 0.970655
smoothSolver:  Solving for Ux, Initial residual = 7.74871e-09, Final residual = 7.74871e-09, No Iterations 0
smoothSolver:  Solving for Uy, Initial residual = 2.18102e-08, Final residual = 2.18102e-08, No Iterations 0
DICPCG:  Solving for p, Initial residual = 5.12529e-07, Final residual = 5.12529e-07, No Iterations 0
time step continuity errors : sum local = 2.13181e-10, global = -2.62581e-19, cumulative = 1.47365e-17
DICPCG:  Solving for p, Initial residual = 8.33202e-07, Final residual = 8.33202e-07, No Iterations 0
time step continuity errors : sum local = 3.30733e-10, global = -2.52437e-20, cumulative = 1.47113e-17
ExecutionTime = 180.52 s  ClockTime = 221 s

End


real	3m41.064s
user	2m41.647s
sys	0m18.893s
